<?xml version="1.0" encoding="UTF-8"?>

<!-- generated on 2026-01-19T21:31:42.709232+05:30 by Eclipse SUMO netedit 1.25.0
<neteditConfiguration xmlns:xsi="http://www.w3.org/2001/XMLSchema-instance" xsi:noNamespaceSchemaLocation="http://sumo.dlr.de/xsd/neteditConfiguration.xsd">

    <input>
        <sumo-net-file value="C:\Users\Shashanka\Desktop\Reinforcement_Signal_Optimizer_EL5\Reinforcement_Signal_Optimizer\backend\app\sumo\networks\converted\new_hosmat.net.xml"/>
    </input>

    <output>
        <output-file value="C:\Users\Shashanka\Desktop\Reinforcement_Signal_Optimizer_EL5\Reinforcement_Signal_Optimizer\backend\app\sumo\networks\converted\new_hosmat.net.xml"/>
    </output>

    <processing>
        <geometry.min-radius.fix.railways value="false"/>
        <geometry.avoid-overlap value="false"/>
        <geometry.max-grade.fix value="false"/>
        <offset.disable-normalization value="true"/>
        <lefthand value="0"/>
    </processing>

    <junctions>
        <no-turnarounds value="true"/>
        <junctions.corner-detail value="5"/>
        <junctions.limit-turn-speed value="5.50"/>
        <rectangular-lane-cut value="0"/>
    </junctions>

    <pedestrian>
        <walkingareas value="0"/>
    </pedestrian>

</neteditConfiguration>
-->

<net version="1.20" junctionCornerDetail="5" limitTurnSpeed="5.50" avoidOverlap="0" xmlns:xsi="http://www.w3.org/2001/XMLSchema-instance" xsi:noNamespaceSchemaLocation="http://sumo.dlr.de/xsd/net_file.xsd">

    <location netOffset="0.00,0.00" convBoundary="-62.86,-157.08,247.85,71.31" origBoundary="-10000000000.00,-10000000000.00,10000000000.00,10000000000.00" projParameter="!"/>

    <edge id=":J14_0" function="internal">
        <lane id=":J14_0_0" index="0" speed="6.42" length="9.04" shape="-12.19,35.20 -12.77,32.78 -13.98,31.16 -15.83,30.33 -18.32,30.30"/>
    </edge>
    <edge id=":J14_1" function="internal">
        <lane id=":J14_1_0" index="0" speed="13.89" length="16.38" shape="-12.19,35.20 -12.45,31.25 -12.55,27.03 -12.51,22.80 -12.35,18.84"/>
    </edge>
    <edge id=":J14_2" function="internal">
        <lane id=":J14_2_0" index="0" speed="9.39" length="16.06" shape="-12.19,35.20 -11.94,31.26 -10.40,27.95 -7.58,25.29 -3.48,23.26"/>
    </edge>
    <edge id=":J14_3" function="internal">
        <lane id=":J14_3_0" index="0" speed="5.81" length="9.14" shape="-9.15,19.02 -8.94,21.69 -7.92,23.29 -6.10,23.81 -3.48,23.26"/>
    </edge>
    <edge id=":J14_4" function="internal">
        <lane id=":J14_4_0" index="0" speed="9.09" length="15.95" shape="-9.15,19.02 -9.95,23.53 -11.74,26.92 -14.53,29.17 -18.32,30.30"/>
    </edge>
    <edge id=":J14_5" function="internal">
        <lane id=":J14_5_0" index="0" speed="7.79" length="11.47" shape="-18.74,27.12 -16.10,26.31 -14.16,24.66 -12.91,22.17 -12.35,18.84"/>
    </edge>
    <edge id=":J14_6" function="internal">
        <lane id=":J14_6_0" index="0" speed="13.89" length="15.76" shape="-18.74,27.12 -14.92,26.48 -11.01,25.58 -7.15,24.49 -3.48,23.26"/>
    </edge>
    <edge id=":J15_0" function="internal">
        <lane id=":J15_0_0" index="0" speed="4.25" length="1.23" shape="26.23,12.56 26.57,12.43 26.78,12.30 26.94,12.10 27.12,11.78"/>
    </edge>
    <edge id=":J16_0" function="internal">
        <lane id=":J16_0_0" index="0" speed="4.38" length="1.07" shape="40.67,-14.94 40.82,-15.22 40.96,-15.40 41.14,-15.53 41.42,-15.67"/>
    </edge>
    <edge id=":J17_0" function="internal">
        <lane id=":J17_0_0" index="0" speed="13.89" length="14.73" shape="79.62,-26.39 76.68,-28.64 73.61,-30.61 70.43,-32.43 67.17,-34.19"/>
    </edge>
    <edge id=":J17_1" function="internal">
        <lane id=":J17_1_0" index="0" speed="6.92" length="12.20" shape="79.62,-26.39 77.82,-28.66 77.60,-31.06 78.97,-33.61 81.94,-36.30"/>
    </edge>
    <edge id=":J17_2" function="internal">
        <lane id=":J17_2_0" index="0" speed="5.57" length="9.39" shape="66.99,-27.73 69.43,-29.28 70.27,-30.88 69.52,-32.51 67.17,-34.19"/>
    </edge>
    <edge id=":J17_3" function="internal">
        <lane id=":J17_3_0" index="0" speed="13.89" length="17.25" shape="66.99,-27.73 70.66,-29.55 74.65,-31.70 78.54,-34.01 81.94,-36.30"/>
    </edge>
    <edge id=":J17_4" function="internal">
        <lane id=":J17_4_0" index="0" speed="10.06" length="15.47" shape="66.99,-27.73 71.76,-29.62 75.80,-30.43 79.11,-30.17 81.69,-28.84"/>
    </edge>
    <edge id=":J18_0" function="internal">
        <lane id=":J18_0_0" index="0" speed="13.89" length="0.79" shape="23.29,-57.92 23.09,-58.04 22.96,-58.13 22.85,-58.25 22.72,-58.45"/>
    </edge>
    <edge id=":J19_0" function="internal">
        <lane id=":J19_0_0" index="0" speed="5.46" length="10.33" shape="2.39,-89.09 0.23,-91.75 -1.39,-92.40 -2.46,-91.03 -2.99,-87.64"/>
    </edge>
    <edge id=":J19_1" function="internal">
        <lane id=":J19_1_0" index="0" speed="13.89" length="18.60" shape="2.39,-89.09 -0.05,-92.67 -3.01,-96.71 -6.20,-100.54 -9.33,-103.46"/>
    </edge>
    <edge id=":J19_2" function="internal">
        <lane id=":J19_2_0" index="0" speed="8.34" length="14.29" shape="2.19,-99.97 0.19,-99.13 -1.34,-96.79 -2.40,-92.96 -2.99,-87.64"/>
    </edge>
    <edge id=":J19_3" function="internal">
        <lane id=":J19_3_0" index="0" speed="12.79" length="12.35" shape="2.19,-99.97 -1.16,-100.00 -3.94,-100.51 -6.55,-101.62 -9.33,-103.46"/>
    </edge>
    <edge id=":J19_4" function="internal">
        <lane id=":J19_4_0" index="0" speed="11.38" length="16.42" shape="-6.18,-87.82 -6.10,-93.57 -6.60,-98.10 -7.68,-101.39 -9.33,-103.46"/>
    </edge>
    <edge id=":J21_0" function="internal">
        <lane id=":J21_0_0" index="0" speed="13.89" length="23.48" shape="193.31,-106.94 188.25,-107.28 181.59,-107.46 174.92,-107.48 169.85,-107.37"/>
    </edge>
    <edge id=":J21_1" function="internal">
        <lane id=":J21_1_0" index="0" speed="7.43" length="16.50" shape="193.31,-106.94 188.55,-108.16 186.11,-110.44 185.98,-113.78 188.16,-118.18"/>
    </edge>
    <edge id=":J21_2" function="internal">
        <lane id=":J21_2_0" index="0" speed="5.72" length="9.20" shape="190.81,-116.38 189.60,-113.93 189.67,-112.07 191.03,-110.80 193.68,-110.12"/>
    </edge>
    <edge id=":J21_3" function="internal">
        <lane id=":J21_3_0" index="0" speed="13.89" length="23.63" shape="190.81,-116.38 187.38,-112.69 182.75,-109.96 176.90,-108.19 169.85,-107.37"/>
    </edge>
    <edge id=":J21_4" function="internal">
        <lane id=":J21_4_0" index="0" speed="5.48" length="10.66" shape="171.64,-102.29 174.33,-104.67 174.92,-106.30 173.43,-107.21 169.85,-107.37"/>
    </edge>
    <edge id=":J21_5" function="internal">
        <lane id=":J21_5_0" index="0" speed="13.89" length="22.97" shape="171.64,-102.29 175.53,-105.44 180.36,-109.79 184.96,-114.37 188.16,-118.18"/>
    </edge>
    <edge id=":J21_6" function="internal">
        <lane id=":J21_6_0" index="0" speed="13.89" length="23.62" shape="171.64,-102.29 176.08,-104.85 182.31,-107.53 188.71,-109.56 193.68,-110.12"/>
    </edge>

    <edge id="-E20" from="J14" to="J19" priority="-1">
        <lane id="-E20_0" index="0" speed="13.89" length="106.84" shape="-12.35,18.84 -6.18,-87.82"/>
    </edge>
    <edge id="-E21" from="J20" to="J14" priority="-1">
        <lane id="-E21_0" index="0" speed="13.89" length="38.16" shape="-56.58,32.06 -18.74,27.12"/>
    </edge>
    <edge id="-E25" from="J23" to="J17" priority="-1">
        <lane id="-E25_0" index="0" speed="13.89" length="118.65" shape="170.32,50.10 79.62,-26.39"/>
    </edge>
    <edge id="-E26" from="J21" to="J24" priority="-1">
        <lane id="-E26_0" index="0" speed="13.89" length="54.73" shape="193.68,-110.12 248.04,-103.74"/>
    </edge>
    <edge id="-E27" from="J25" to="J21" priority="-1">
        <lane id="-E27_0" index="0" speed="13.89" length="48.08" shape="217.78,-156.18 190.81,-116.38"/>
    </edge>
    <edge id="E14" from="J13" to="J14" priority="-1">
        <lane id="E14_0" index="0" speed="13.89" length="36.40" shape="-8.92,71.45 -12.19,35.20"/>
    </edge>
    <edge id="E15" from="J14" to="J15" priority="-1">
        <lane id="E15_0" index="0" speed="13.89" length="31.58" shape="-3.48,23.26 26.23,12.56"/>
    </edge>
    <edge id="E16" from="J15" to="J16" priority="-1">
        <lane id="E16_0" index="0" speed="13.89" length="29.97" shape="27.12,11.78 40.67,-14.94"/>
    </edge>
    <edge id="E17" from="J16" to="J17" priority="-1">
        <lane id="E17_0" index="0" speed="13.89" length="28.27" shape="41.42,-15.67 66.99,-27.73"/>
    </edge>
    <edge id="E18" from="J17" to="J18" priority="-1">
        <lane id="E18_0" index="0" speed="13.89" length="49.88" shape="67.17,-34.19 23.29,-57.92"/>
    </edge>
    <edge id="E19" from="J18" to="J19" priority="-1">
        <lane id="E19_0" index="0" speed="13.89" length="36.78" shape="22.72,-58.45 2.39,-89.09"/>
    </edge>
    <edge id="E20" from="J19" to="J14" priority="-1">
        <lane id="E20_0" index="0" speed="13.89" length="106.84" shape="-2.99,-87.64 -9.15,19.02"/>
    </edge>
    <edge id="E21" from="J14" to="J20" priority="-1">
        <lane id="E21_0" index="0" speed="13.89" length="38.16" shape="-18.32,30.30 -56.16,35.24"/>
    </edge>
    <edge id="E22" from="J17" to="J21" priority="-1">
        <lane id="E22_0" index="0" speed="13.89" length="111.36" shape="81.94,-36.30 171.64,-102.29"/>
    </edge>
    <edge id="E23" from="J21" to="J19" priority="-1">
        <lane id="E23_0" index="0" speed="13.89" length="167.82" shape="169.85,-107.37 2.19,-99.97"/>
    </edge>
    <edge id="E24" from="J19" to="J22" priority="-1">
        <lane id="E24_0" index="0" speed="13.89" length="68.17" shape="-9.33,-103.46 -63.82,-144.42"/>
    </edge>
    <edge id="E25" from="J17" to="J23" priority="-1">
        <lane id="E25_0" index="0" speed="13.89" length="118.65" shape="81.69,-28.84 172.38,47.66"/>
    </edge>
    <edge id="E26" from="J24" to="J21" priority="-1">
        <lane id="E26_0" index="0" speed="13.89" length="54.73" shape="247.66,-100.56 193.31,-106.94"/>
    </edge>
    <edge id="E27" from="J21" to="J25" priority="-1">
        <lane id="E27_0" index="0" speed="13.89" length="48.08" shape="188.16,-118.18 215.14,-157.98"/>
    </edge>

    <tlLogic id="J14" type="static" programID="0" offset="0">
        <phase duration="26" state="rrrGGGr"/>
        <phase duration="3"  state="rrryyyr"/>
        <phase duration="1"  state="rrrrrrr"/>
        <phase duration="27" state="GGGrrrr"/>
        <phase duration="3"  state="Gyyrrrr"/>
        <phase duration="27" state="GrrrrGG"/>
        <phase duration="3"  state="yrrrrGy"/>
    </tlLogic>
    <tlLogic id="J17" type="static" programID="0" offset="0">
        <phase duration="42" state="GGrrr"/>
        <phase duration="3"  state="yyrrr"/>
        <phase duration="1"  state="rrrrr"/>
        <phase duration="41" state="rrGGG"/>
        <phase duration="3"  state="rryyy"/>
    </tlLogic>
    <tlLogic id="J19" type="static" programID="0" offset="0">
        <phase duration="27" state="rrGGr"/>
        <phase duration="3"  state="rryyr"/>
        <phase duration="27" state="GrrrG"/>
        <phase duration="3"  state="Grrry"/>
        <phase duration="27" state="GGrrr"/>
        <phase duration="3"  state="yyrrr"/>
    </tlLogic>
    <tlLogic id="J21" type="static" programID="0" offset="0">
        <phase duration="27" state="rrrrGGG"/>
        <phase duration="3"  state="rrrryyy"/>
        <phase duration="27" state="rrGGrrr"/>
        <phase duration="3"  state="rrGyrrr"/>
        <phase duration="27" state="GGGrrrr"/>
        <phase duration="3"  state="yyyrrrr"/>
    </tlLogic>

    <junction id="J13" type="dead_end" x="-7.33" y="71.31" incLanes="" intLanes="" shape="-7.33,71.31 -10.52,71.60"/>
    <junction id="J14" type="traffic_light" x="-11.26" y="27.76" incLanes="E14_0 E20_0 -E21_0" intLanes=":J14_0_0 :J14_1_0 :J14_2_0 :J14_3_0 :J14_4_0 :J14_5_0 :J14_6_0" shape="-13.79,35.35 -10.60,35.06 -10.57,32.75 -10.04,30.67 -9.01,28.84 -7.49,27.24 -5.46,25.88 -2.94,24.76 -4.02,21.75 -6.09,22.06 -6.79,21.77 -7.27,21.18 -7.52,20.30 -7.56,19.12 -13.94,18.75 -14.66,22.25 -15.37,23.54 -16.32,24.51 -17.51,25.18 -18.94,25.54 -18.11,31.88 -15.87,32.04 -15.05,32.49 -14.43,33.19 -14.01,34.15">
        <request index="0" response="0000000" foes="0010000" cont="0"/>
        <request index="1" response="0000000" foes="1110000" cont="0"/>
        <request index="2" response="0011000" foes="1011000" cont="0"/>
        <request index="3" response="0000000" foes="1000100" cont="0"/>
        <request index="4" response="0000011" foes="1000111" cont="0"/>
        <request index="5" response="0000010" foes="0000010" cont="0"/>
        <request index="6" response="0011110" foes="0011110" cont="0"/>
    </junction>
    <junction id="J15" type="priority" x="27.97" y="13.64" incLanes="E15_0" intLanes=":J15_0_0" shape="28.54,12.51 25.69,11.06 26.77,14.07 27.61,13.72 27.88,13.53 28.10,13.29 28.31,12.96">
        <request index="0" response="0" foes="0" cont="0"/>
    </junction>
    <junction id="J16" type="priority" x="42.10" y="-14.22" incLanes="E16_0" intLanes=":J16_0_0" shape="42.10,-14.22 40.73,-17.11 40.04,-16.75 39.81,-16.57 39.63,-16.36 39.45,-16.07 39.25,-15.67">
        <request index="0" response="0" foes="0" cont="0"/>
    </junction>
    <junction id="J17" type="traffic_light" x="77.01" y="-30.69" incLanes="-E25_0 E17_0" intLanes=":J17_0_0 :J17_1_0 :J17_2_0 :J17_3_0 :J17_4_0" shape="78.59,-25.17 82.72,-30.06 81.38,-31.76 81.23,-32.59 81.43,-33.41 81.98,-34.21 82.88,-35.01 80.99,-37.59 78.65,-36.08 76.39,-35.05 74.18,-34.48 72.03,-34.39 69.95,-34.76 67.93,-35.60 66.40,-32.79 67.96,-31.54 68.14,-30.93 67.92,-30.34 67.31,-29.75 66.31,-29.18 67.67,-26.28 69.68,-27.06 71.62,-27.45 73.48,-27.46 75.26,-27.08 76.97,-26.32">
        <request index="0" response="11100" foes="11100" cont="0"/>
        <request index="1" response="11000" foes="11000" cont="0"/>
        <request index="2" response="00000" foes="00001" cont="0"/>
        <request index="3" response="00000" foes="00011" cont="0"/>
        <request index="4" response="00000" foes="00011" cont="0"/>
    </junction>
    <junction id="J18" type="priority" x="24.05" y="-59.33" incLanes="E18_0" intLanes=":J18_0_0" shape="22.53,-56.52 24.05,-59.33 21.38,-57.56 21.72,-57.08 21.86,-56.93 22.02,-56.81 22.24,-56.68">
        <request index="0" response="0" foes="0" cont="0"/>
    </junction>
    <junction id="J19" type="traffic_light" x="-3.80" y="-101.31" incLanes="E19_0 E23_0 -E20_0" intLanes=":J19_0_0 :J19_1_0 :J19_2_0 :J19_3_0 :J19_4_0" shape="1.05,-88.21 3.72,-89.98 2.16,-92.49 1.13,-94.56 0.63,-96.19 0.65,-97.36 1.19,-98.09 2.26,-98.37 2.12,-101.57 -0.25,-101.49 -2.06,-101.55 -3.53,-101.83 -4.92,-102.40 -6.45,-103.35 -8.37,-104.74 -10.29,-102.19 -8.59,-99.53 -8.06,-97.42 -7.75,-94.78 -7.66,-91.61 -7.78,-87.92 -1.39,-87.55 -1.02,-89.40 -0.66,-89.71 -0.20,-89.62 0.37,-89.12">
        <request index="0" response="00100" foes="00100" cont="0"/>
        <request index="1" response="11100" foes="11100" cont="0"/>
        <request index="2" response="00000" foes="00011" cont="0"/>
        <request index="3" response="10000" foes="10010" cont="0"/>
        <request index="4" response="00000" foes="01010" cont="0"/>
    </junction>
    <junction id="J20" type="dead_end" x="-56.37" y="33.65" incLanes="E21_0" intLanes="" shape="-56.37,33.65 -55.96,36.82 -56.37,33.65"/>
    <junction id="J21" type="traffic_light" x="184.29" y="-109.61" incLanes="E26_0 -E27_0 E22_0" intLanes=":J21_0_0 :J21_1_0 :J21_2_0 :J21_3_0 :J21_4_0 :J21_5_0 :J21_6_0" shape="193.12,-105.35 193.87,-111.71 191.91,-112.33 191.45,-112.89 191.33,-113.59 191.56,-114.46 192.14,-115.49 186.84,-119.08 184.55,-116.12 182.04,-113.67 179.31,-111.73 176.35,-110.30 173.17,-109.38 169.78,-108.97 169.92,-105.77 171.78,-105.61 172.11,-105.31 172.04,-104.88 171.56,-104.30 170.69,-103.58 172.59,-101.00 176.32,-103.57 179.35,-105.16 182.12,-105.97 185.04,-106.15 188.57,-105.89">
        <request index="0" response="1111000" foes="1111000" cont="0"/>
        <request index="1" response="1101000" foes="1101000" cont="0"/>
        <request index="2" response="0000000" foes="1000000" cont="0"/>
        <request index="3" response="1110000" foes="1110011" cont="0"/>
        <request index="4" response="0000000" foes="0001001" cont="0"/>
        <request index="5" response="0000000" foes="0001011" cont="0"/>
        <request index="6" response="0000100" foes="0001111" cont="0"/>
    </junction>
    <junction id="J22" type="dead_end" x="-62.86" y="-145.70" incLanes="E24_0" intLanes="" shape="-64.78,-143.14 -62.86,-145.70"/>
    <junction id="J23" type="dead_end" x="171.35" y="48.88" incLanes="E25_0" intLanes="" shape="171.35,48.88 173.41,46.43 171.35,48.88"/>
    <junction id="J24" type="dead_end" x="247.85" y="-102.15" incLanes="-E26_0" intLanes="" shape="247.85,-102.15 248.22,-105.33 247.85,-102.15"/>
    <junction id="J25" type="dead_end" x="216.46" y="-157.08" incLanes="E27_0" intLanes="" shape="216.46,-157.08 213.81,-158.88 216.46,-157.08"/>

    <connection from="-E20" to="E24" fromLane="0" toLane="0" via=":J19_4_0" tl="J19" linkIndex="4" dir="r" state="O"/>
    <connection from="-E21" to="-E20" fromLane="0" toLane="0" via=":J14_5_0" tl="J14" linkIndex="5" dir="r" state="o"/>
    <connection from="-E21" to="E15" fromLane="0" toLane="0" via=":J14_6_0" tl="J14" linkIndex="6" dir="s" state="o"/>
    <connection from="-E25" to="E18" fromLane="0" toLane="0" via=":J17_0_0" tl="J17" linkIndex="0" dir="s" state="o"/>
    <connection from="-E25" to="E22" fromLane="0" toLane="0" via=":J17_1_0" tl="J17" linkIndex="1" dir="l" state="o"/>
    <connection from="-E27" to="-E26" fromLane="0" toLane="0" via=":J21_2_0" tl="J21" linkIndex="2" dir="r" state="O"/>
    <connection from="-E27" to="E23" fromLane="0" toLane="0" via=":J21_3_0" tl="J21" linkIndex="3" dir="l" state="o"/>
    <connection from="E14" to="E21" fromLane="0" toLane="0" via=":J14_0_0" tl="J14" linkIndex="0" dir="r" state="O"/>
    <connection from="E14" to="-E20" fromLane="0" toLane="0" via=":J14_1_0" tl="J14" linkIndex="1" dir="s" state="O"/>
    <connection from="E14" to="E15" fromLane="0" toLane="0" via=":J14_2_0" tl="J14" linkIndex="2" dir="l" state="o"/>
    <connection from="E15" to="E16" fromLane="0" toLane="0" via=":J15_0_0" dir="s" state="M"/>
    <connection from="E16" to="E17" fromLane="0" toLane="0" via=":J16_0_0" dir="s" state="M"/>
    <connection from="E17" to="E18" fromLane="0" toLane="0" via=":J17_2_0" tl="J17" linkIndex="2" dir="r" state="O"/>
    <connection from="E17" to="E22" fromLane="0" toLane="0" via=":J17_3_0" tl="J17" linkIndex="3" dir="s" state="O"/>
    <connection from="E17" to="E25" fromLane="0" toLane="0" via=":J17_4_0" tl="J17" linkIndex="4" dir="l" state="O"/>
    <connection from="E18" to="E19" fromLane="0" toLane="0" via=":J18_0_0" dir="s" state="M"/>
    <connection from="E19" to="E20" fromLane="0" toLane="0" via=":J19_0_0" tl="J19" linkIndex="0" dir="r" state="o"/>
    <connection from="E19" to="E24" fromLane="0" toLane="0" via=":J19_1_0" tl="J19" linkIndex="1" dir="s" state="o"/>
    <connection from="E20" to="E15" fromLane="0" toLane="0" via=":J14_3_0" tl="J14" linkIndex="3" dir="r" state="O"/>
    <connection from="E20" to="E21" fromLane="0" toLane="0" via=":J14_4_0" tl="J14" linkIndex="4" dir="l" state="o"/>
    <connection from="E22" to="E23" fromLane="0" toLane="0" via=":J21_4_0" tl="J21" linkIndex="4" dir="r" state="O"/>
    <connection from="E22" to="E27" fromLane="0" toLane="0" via=":J21_5_0" tl="J21" linkIndex="5" dir="s" state="O"/>
    <connection from="E22" to="-E26" fromLane="0" toLane="0" via=":J21_6_0" tl="J21" linkIndex="6" dir="L" state="o"/>
    <connection from="E23" to="E20" fromLane="0" toLane="0" via=":J19_2_0" tl="J19" linkIndex="2" dir="r" state="O"/>
    <connection from="E23" to="E24" fromLane="0" toLane="0" via=":J19_3_0" tl="J19" linkIndex="3" dir="s" state="o"/>
    <connection from="E26" to="E23" fromLane="0" toLane="0" via=":J21_0_0" tl="J21" linkIndex="0" dir="s" state="o"/>
    <connection from="E26" to="E27" fromLane="0" toLane="0" via=":J21_1_0" tl="J21" linkIndex="1" dir="l" state="o"/>

    <connection from=":J14_0" to="E21" fromLane="0" toLane="0" dir="r" state="M"/>
    <connection from=":J14_1" to="-E20" fromLane="0" toLane="0" dir="s" state="M"/>
    <connection from=":J14_2" to="E15" fromLane="0" toLane="0" dir="l" state="M"/>
    <connection from=":J14_3" to="E15" fromLane="0" toLane="0" dir="r" state="M"/>
    <connection from=":J14_4" to="E21" fromLane="0" toLane="0" dir="l" state="M"/>
    <connection from=":J14_5" to="-E20" fromLane="0" toLane="0" dir="r" state="M"/>
    <connection from=":J14_6" to="E15" fromLane="0" toLane="0" dir="s" state="M"/>
    <connection from=":J15_0" to="E16" fromLane="0" toLane="0" dir="s" state="M"/>
    <connection from=":J16_0" to="E17" fromLane="0" toLane="0" dir="s" state="M"/>
    <connection from=":J17_0" to="E18" fromLane="0" toLane="0" dir="s" state="M"/>
    <connection from=":J17_1" to="E22" fromLane="0" toLane="0" dir="l" state="M"/>
    <connection from=":J17_2" to="E18" fromLane="0" toLane="0" dir="r" state="M"/>
    <connection from=":J17_3" to="E22" fromLane="0" toLane="0" dir="s" state="M"/>
    <connection from=":J17_4" to="E25" fromLane="0" toLane="0" dir="l" state="M"/>
    <connection from=":J18_0" to="E19" fromLane="0" toLane="0" dir="s" state="M"/>
    <connection from=":J19_0" to="E20" fromLane="0" toLane="0" dir="r" state="M"/>
    <connection from=":J19_1" to="E24" fromLane="0" toLane="0" dir="s" state="M"/>
    <connection from=":J19_2" to="E20" fromLane="0" toLane="0" dir="r" state="M"/>
    <connection from=":J19_3" to="E24" fromLane="0" toLane="0" dir="s" state="M"/>
    <connection from=":J19_4" to="E24" fromLane="0" toLane="0" dir="r" state="M"/>
    <connection from=":J21_0" to="E23" fromLane="0" toLane="0" dir="s" state="M"/>
    <connection from=":J21_1" to="E27" fromLane="0" toLane="0" dir="l" state="M"/>
    <connection from=":J21_2" to="-E26" fromLane="0" toLane="0" dir="r" state="M"/>
    <connection from=":J21_3" to="E23" fromLane="0" toLane="0" dir="l" state="M"/>
    <connection from=":J21_4" to="E23" fromLane="0" toLane="0" dir="r" state="M"/>
    <connection from=":J21_5" to="E27" fromLane="0" toLane="0" dir="s" state="M"/>
    <connection from=":J21_6" to="-E26" fromLane="0" toLane="0" dir="L" state="M"/>

</net>
