<?xml version="1.0" encoding="UTF-8"?>

<!-- generated on 2026-01-19 23:11:36.598703 by Eclipse SUMO randomTrips.py v1_25_0+0000-ac6c5a6752d
<configuration>
    <net-file value="new_hosmat.net.xml"/>
    <output-trip-file value="light.trips.xml"/>
    <fringe-factor value="100"/>
    <period value="5.5"/>
</configuration>
-->

<routes xmlns:xsi="http://www.w3.org/2001/XMLSchema-instance" xsi:noNamespaceSchemaLocation="http://sumo.dlr.de/xsd/routes_file.xsd">
    <trip id="0" depart="0.00" from="E14" to="-E26"/>
    <trip id="1" depart="5.50" from="-E25" to="E21"/>
    <trip id="2" depart="11.00" from="E14" to="E25"/>
    <trip id="3" depart="16.50" from="E26" to="-E26"/>
    <trip id="4" depart="22.00" from="-E27" to="-E26"/>
    <trip id="5" depart="27.50" from="-E25" to="E24"/>
    <trip id="6" depart="33.00" from="-E21" to="E15"/>
    <trip id="7" depart="38.50" from="E14" to="E24"/>
    <trip id="8" depart="44.00" from="-E25" to="E24"/>
    <trip id="9" depart="49.50" from="E26" to="-E26"/>
    <trip id="10" depart="55.00" from="E26" to="E25"/>
    <trip id="11" depart="60.50" from="-E25" to="-E26"/>
    <trip id="12" depart="66.00" from="E26" to="E21"/>
    <trip id="13" depart="71.50" from="-E21" to="-E26"/>
    <trip id="14" depart="77.00" from="E26" to="E24"/>
    <trip id="15" depart="82.50" from="E26" to="E25"/>
    <trip id="16" depart="88.00" from="-E27" to="E27"/>
    <trip id="17" depart="93.50" from="-E25" to="E24"/>
    <trip id="18" depart="99.00" from="E26" to="E25"/>
    <trip id="19" depart="104.50" from="E26" to="E24"/>
    <trip id="20" depart="110.00" from="E14" to="-E26"/>
    <trip id="21" depart="115.50" from="-E25" to="E21"/>
    <trip id="22" depart="121.00" from="-E21" to="E21"/>
    <trip id="23" depart="126.50" from="-E21" to="E21"/>
    <trip id="24" depart="132.00" from="E14" to="E21"/>
    <trip id="25" depart="137.50" from="-E25" to="E20"/>
    <trip id="26" depart="143.00" from="-E25" to="E27"/>
    <trip id="27" depart="148.50" from="E14" to="E25"/>
    <trip id="28" depart="154.00" from="-E21" to="E25"/>
    <trip id="29" depart="159.50" from="-E21" to="E21"/>
    <trip id="30" depart="165.00" from="E26" to="E25"/>
    <trip id="31" depart="170.50" from="-E27" to="E25"/>
    <trip id="32" depart="176.00" from="E26" to="E25"/>
    <trip id="33" depart="181.50" from="-E25" to="-E26"/>
    <trip id="34" depart="187.00" from="-E25" to="E21"/>
    <trip id="35" depart="192.50" from="-E25" to="E27"/>
    <trip id="36" depart="198.00" from="E26" to="E21"/>
    <trip id="37" depart="203.50" from="E14" to="E21"/>
    <trip id="38" depart="209.00" from="E26" to="E24"/>
    <trip id="39" depart="214.50" from="-E25" to="E21"/>
    <trip id="40" depart="220.00" from="-E27" to="E21"/>
    <trip id="41" depart="225.50" from="-E27" to="E27"/>
    <trip id="42" depart="231.00" from="-E27" to="E21"/>
    <trip id="43" depart="236.50" from="E26" to="E24"/>
    <trip id="44" depart="242.00" from="-E21" to="-E26"/>
    <trip id="45" depart="247.50" from="-E21" to="E25"/>
    <trip id="46" depart="253.00" from="E17" to="E24"/>
    <trip id="47" depart="258.50" from="-E21" to="E21"/>
    <trip id="48" depart="264.00" from="E26" to="E24"/>
    <trip id="49" depart="269.50" from="E26" to="E27"/>
    <trip id="50" depart="275.00" from="-E21" to="E25"/>
    <trip id="51" depart="280.50" from="E14" to="E24"/>
    <trip id="52" depart="286.00" from="-E25" to="E25"/>
    <trip id="53" depart="291.50" from="-E21" to="E24"/>
    <trip id="54" depart="297.00" from="-E27" to="E27"/>
    <trip id="55" depart="302.50" from="E26" to="E21"/>
    <trip id="56" depart="308.00" from="-E27" to="-E26"/>
    <trip id="57" depart="313.50" from="E26" to="E27"/>
    <trip id="58" depart="319.00" from="-E25" to="E25"/>
    <trip id="59" depart="324.50" from="E14" to="-E26"/>
    <trip id="60" depart="330.00" from="E14" to="E24"/>
    <trip id="61" depart="335.50" from="E14" to="E24"/>
    <trip id="62" depart="341.00" from="-E21" to="E27"/>
    <trip id="63" depart="346.50" from="E26" to="E27"/>
    <trip id="64" depart="352.00" from="-E25" to="-E26"/>
    <trip id="65" depart="357.50" from="E26" to="E27"/>
    <trip id="66" depart="363.00" from="-E21" to="E24"/>
    <trip id="67" depart="368.50" from="-E21" to="E25"/>
    <trip id="68" depart="374.00" from="E14" to="-E26"/>
    <trip id="69" depart="379.50" from="-E27" to="E24"/>
    <trip id="70" depart="385.00" from="-E25" to="E27"/>
    <trip id="71" depart="390.50" from="-E27" to="E21"/>
    <trip id="72" depart="396.00" from="-E27" to="E25"/>
    <trip id="73" depart="401.50" from="-E25" to="E21"/>
    <trip id="74" depart="407.00" from="E26" to="E25"/>
    <trip id="75" depart="412.50" from="-E27" to="E24"/>
    <trip id="76" depart="418.00" from="-E21" to="E21"/>
    <trip id="77" depart="423.50" from="-E25" to="E24"/>
    <trip id="78" depart="429.00" from="-E25" to="E21"/>
    <trip id="79" depart="434.50" from="-E21" to="E25"/>
    <trip id="80" depart="440.00" from="-E25" to="E27"/>
    <trip id="81" depart="445.50" from="E26" to="-E26"/>
    <trip id="82" depart="451.00" from="-E25" to="E25"/>
    <trip id="83" depart="456.50" from="-E25" to="-E26"/>
    <trip id="84" depart="462.00" from="E26" to="E24"/>
    <trip id="85" depart="467.50" from="-E27" to="E25"/>
    <trip id="86" depart="473.00" from="E26" to="-E26"/>
    <trip id="87" depart="478.50" from="-E21" to="E24"/>
    <trip id="88" depart="484.00" from="-E27" to="E24"/>
    <trip id="89" depart="489.50" from="E14" to="E25"/>
    <trip id="90" depart="495.00" from="E26" to="-E26"/>
    <trip id="91" depart="500.50" from="-E27" to="E21"/>
    <trip id="92" depart="506.00" from="E26" to="E21"/>
    <trip id="93" depart="511.50" from="-E21" to="E24"/>
    <trip id="94" depart="517.00" from="-E27" to="E21"/>
    <trip id="95" depart="522.50" from="-E25" to="E27"/>
    <trip id="96" depart="528.00" from="-E27" to="E27"/>
    <trip id="97" depart="533.50" from="-E27" to="-E26"/>
    <trip id="98" depart="539.00" from="E26" to="E27"/>
    <trip id="99" depart="544.50" from="E26" to="E27"/>
    <trip id="100" depart="550.00" from="E26" to="-E26"/>
    <trip id="101" depart="555.50" from="-E27" to="E21"/>
    <trip id="102" depart="561.00" from="-E27" to="-E26"/>
    <trip id="103" depart="566.50" from="-E25" to="E27"/>
    <trip id="104" depart="572.00" from="-E25" to="E25"/>
    <trip id="105" depart="577.50" from="-E27" to="E24"/>
    <trip id="106" depart="583.00" from="E26" to="E27"/>
    <trip id="107" depart="588.50" from="-E27" to="E25"/>
    <trip id="108" depart="594.00" from="-E21" to="E21"/>
    <trip id="109" depart="599.50" from="E26" to="E24"/>
    <trip id="110" depart="605.00" from="-E27" to="E25"/>
    <trip id="111" depart="610.50" from="-E21" to="E24"/>
    <trip id="112" depart="616.00" from="-E27" to="E27"/>
    <trip id="113" depart="621.50" from="-E21" to="E27"/>
    <trip id="114" depart="627.00" from="-E21" to="-E26"/>
    <trip id="115" depart="632.50" from="E14" to="E25"/>
    <trip id="116" depart="638.00" from="-E25" to="-E26"/>
    <trip id="117" depart="643.50" from="E26" to="E21"/>
    <trip id="118" depart="649.00" from="E14" to="E25"/>
    <trip id="119" depart="654.50" from="-E27" to="E24"/>
    <trip id="120" depart="660.00" from="-E27" to="E27"/>
    <trip id="121" depart="665.50" from="-E25" to="E25"/>
    <trip id="122" depart="671.00" from="-E25" to="E21"/>
    <trip id="123" depart="676.50" from="E14" to="E21"/>
    <trip id="124" depart="682.00" from="-E25" to="E25"/>
    <trip id="125" depart="687.50" from="-E21" to="E24"/>
    <trip id="126" depart="693.00" from="E26" to="E27"/>
    <trip id="127" depart="698.50" from="-E21" to="E21"/>
    <trip id="128" depart="704.00" from="-E25" to="E27"/>
    <trip id="129" depart="709.50" from="E26" to="E27"/>
    <trip id="130" depart="715.00" from="-E25" to="-E26"/>
    <trip id="131" depart="720.50" from="E26" to="E25"/>
    <trip id="132" depart="726.00" from="E14" to="E27"/>
    <trip id="133" depart="731.50" from="E14" to="-E26"/>
    <trip id="134" depart="737.00" from="E26" to="E21"/>
    <trip id="135" depart="742.50" from="E14" to="E27"/>
    <trip id="136" depart="748.00" from="-E21" to="-E26"/>
    <trip id="137" depart="753.50" from="-E21" to="E24"/>
    <trip id="138" depart="759.00" from="-E25" to="E24"/>
    <trip id="139" depart="764.50" from="E14" to="E17"/>
    <trip id="140" depart="770.00" from="E14" to="E21"/>
    <trip id="141" depart="775.50" from="-E27" to="E27"/>
    <trip id="142" depart="781.00" from="E26" to="-E26"/>
    <trip id="143" depart="786.50" from="-E27" to="E21"/>
    <trip id="144" depart="792.00" from="-E21" to="E25"/>
    <trip id="145" depart="797.50" from="E14" to="E21"/>
    <trip id="146" depart="803.00" from="E14" to="E24"/>
    <trip id="147" depart="808.50" from="-E27" to="-E26"/>
    <trip id="148" depart="814.00" from="-E21" to="E27"/>
    <trip id="149" depart="819.50" from="E26" to="E24"/>
    <trip id="150" depart="825.00" from="E26" to="E24"/>
    <trip id="151" depart="830.50" from="-E21" to="-E26"/>
    <trip id="152" depart="836.00" from="-E25" to="E27"/>
    <trip id="153" depart="841.50" from="E19" to="E27"/>
    <trip id="154" depart="847.00" from="E26" to="E20"/>
    <trip id="155" depart="852.50" from="-E25" to="-E26"/>
    <trip id="156" depart="858.00" from="E14" to="E27"/>
    <trip id="157" depart="863.50" from="-E27" to="E25"/>
    <trip id="158" depart="869.00" from="-E21" to="E27"/>
    <trip id="159" depart="874.50" from="E26" to="E27"/>
    <trip id="160" depart="880.00" from="E26" to="E27"/>
    <trip id="161" depart="885.50" from="-E21" to="E25"/>
    <trip id="162" depart="891.00" from="-E25" to="E27"/>
    <trip id="163" depart="896.50" from="E23" to="E27"/>
    <trip id="164" depart="902.00" from="E26" to="E21"/>
    <trip id="165" depart="907.50" from="E14" to="-E26"/>
    <trip id="166" depart="913.00" from="E26" to="E27"/>
    <trip id="167" depart="918.50" from="-E25" to="E27"/>
    <trip id="168" depart="924.00" from="-E27" to="E21"/>
    <trip id="169" depart="929.50" from="E18" to="E21"/>
    <trip id="170" depart="935.00" from="-E21" to="-E26"/>
    <trip id="171" depart="940.50" from="-E25" to="E27"/>
    <trip id="172" depart="946.00" from="E26" to="E21"/>
    <trip id="173" depart="951.50" from="E14" to="E21"/>
    <trip id="174" depart="957.00" from="E26" to="E24"/>
    <trip id="175" depart="962.50" from="E26" to="-E26"/>
    <trip id="176" depart="968.00" from="E26" to="-E26"/>
    <trip id="177" depart="973.50" from="E26" to="E21"/>
    <trip id="178" depart="979.00" from="-E21" to="E24"/>
    <trip id="179" depart="984.50" from="E14" to="E21"/>
    <trip id="180" depart="990.00" from="E14" to="E24"/>
    <trip id="181" depart="995.50" from="-E25" to="E24"/>
    <trip id="182" depart="1001.00" from="-E25" to="E25"/>
    <trip id="183" depart="1006.50" from="-E27" to="E25"/>
    <trip id="184" depart="1012.00" from="E14" to="E25"/>
    <trip id="185" depart="1017.50" from="-E25" to="-E26"/>
    <trip id="186" depart="1023.00" from="E14" to="E21"/>
    <trip id="187" depart="1028.50" from="-E25" to="E27"/>
    <trip id="188" depart="1034.00" from="E14" to="E21"/>
    <trip id="189" depart="1039.50" from="-E25" to="E22"/>
    <trip id="190" depart="1045.00" from="-E27" to="E21"/>
    <trip id="191" depart="1050.50" from="-E21" to="E24"/>
    <trip id="192" depart="1056.00" from="E26" to="E25"/>
    <trip id="193" depart="1061.50" from="E26" to="E25"/>
    <trip id="194" depart="1067.00" from="-E25" to="E24"/>
    <trip id="195" depart="1072.50" from="-E27" to="E24"/>
    <trip id="196" depart="1078.00" from="E14" to="E24"/>
    <trip id="197" depart="1083.50" from="-E27" to="E21"/>
    <trip id="198" depart="1089.00" from="-E27" to="E27"/>
    <trip id="199" depart="1094.50" from="E19" to="-E26"/>
    <trip id="200" depart="1100.00" from="-E21" to="E24"/>
    <trip id="201" depart="1105.50" from="E14" to="E21"/>
    <trip id="202" depart="1111.00" from="E26" to="E25"/>
    <trip id="203" depart="1116.50" from="E14" to="E21"/>
    <trip id="204" depart="1122.00" from="-E25" to="-E26"/>
    <trip id="205" depart="1127.50" from="-E25" to="E24"/>
    <trip id="206" depart="1133.00" from="E26" to="-E26"/>
    <trip id="207" depart="1138.50" from="-E27" to="E25"/>
    <trip id="208" depart="1144.00" from="-E21" to="E25"/>
    <trip id="209" depart="1149.50" from="-E27" to="E21"/>
    <trip id="210" depart="1155.00" from="E14" to="-E26"/>
    <trip id="211" depart="1160.50" from="E14" to="E25"/>
    <trip id="212" depart="1166.00" from="-E21" to="E24"/>
    <trip id="213" depart="1171.50" from="-E21" to="E27"/>
    <trip id="214" depart="1177.00" from="-E27" to="-E26"/>
    <trip id="215" depart="1182.50" from="-E25" to="E27"/>
    <trip id="216" depart="1188.00" from="-E27" to="E25"/>
    <trip id="217" depart="1193.50" from="E14" to="E27"/>
    <trip id="218" depart="1199.00" from="E14" to="E27"/>
    <trip id="219" depart="1204.50" from="E26" to="E25"/>
    <trip id="220" depart="1210.00" from="E14" to="E24"/>
    <trip id="221" depart="1215.50" from="E26" to="E24"/>
    <trip id="222" depart="1221.00" from="E26" to="E25"/>
    <trip id="223" depart="1226.50" from="-E27" to="E21"/>
    <trip id="224" depart="1232.00" from="-E25" to="E25"/>
    <trip id="225" depart="1237.50" from="E14" to="E24"/>
    <trip id="226" depart="1243.00" from="E14" to="E21"/>
    <trip id="227" depart="1248.50" from="-E21" to="E21"/>
    <trip id="228" depart="1254.00" from="-E25" to="E21"/>
    <trip id="229" depart="1259.50" from="-E27" to="-E26"/>
    <trip id="230" depart="1265.00" from="-E25" to="E25"/>
    <trip id="231" depart="1270.50" from="E14" to="-E26"/>
    <trip id="232" depart="1276.00" from="-E27" to="E24"/>
    <trip id="233" depart="1281.50" from="-E27" to="E19"/>
    <trip id="234" depart="1287.00" from="-E27" to="E27"/>
    <trip id="235" depart="1292.50" from="-E27" to="E25"/>
    <trip id="236" depart="1298.00" from="E26" to="E25"/>
    <trip id="237" depart="1303.50" from="-E25" to="-E26"/>
    <trip id="238" depart="1309.00" from="-E25" to="E25"/>
    <trip id="239" depart="1314.50" from="E26" to="E27"/>
    <trip id="240" depart="1320.00" from="-E27" to="E25"/>
    <trip id="241" depart="1325.50" from="-E27" to="E24"/>
    <trip id="242" depart="1331.00" from="-E25" to="E21"/>
    <trip id="243" depart="1336.50" from="-E27" to="-E26"/>
    <trip id="244" depart="1342.00" from="-E25" to="E25"/>
    <trip id="245" depart="1347.50" from="-E27" to="-E26"/>
    <trip id="246" depart="1353.00" from="-E27" to="-E26"/>
    <trip id="247" depart="1358.50" from="E14" to="-E26"/>
    <trip id="248" depart="1364.00" from="-E25" to="E24"/>
    <trip id="249" depart="1369.50" from="-E21" to="E25"/>
    <trip id="250" depart="1375.00" from="-E21" to="E24"/>
    <trip id="251" depart="1380.50" from="-E21" to="E21"/>
    <trip id="252" depart="1386.00" from="-E25" to="E21"/>
    <trip id="253" depart="1391.50" from="E14" to="E21"/>
    <trip id="254" depart="1397.00" from="E14" to="E27"/>
    <trip id="255" depart="1402.50" from="-E25" to="-E26"/>
    <trip id="256" depart="1408.00" from="-E21" to="E24"/>
    <trip id="257" depart="1413.50" from="E26" to="E21"/>
    <trip id="258" depart="1419.00" from="E14" to="E25"/>
    <trip id="259" depart="1424.50" from="E14" to="E25"/>
    <trip id="260" depart="1430.00" from="E26" to="E15"/>
    <trip id="261" depart="1435.50" from="-E21" to="-E26"/>
    <trip id="262" depart="1441.00" from="-E21" to="E25"/>
    <trip id="263" depart="1446.50" from="-E27" to="E21"/>
    <trip id="264" depart="1452.00" from="E14" to="E25"/>
    <trip id="265" depart="1457.50" from="-E21" to="E25"/>
    <trip id="266" depart="1463.00" from="E14" to="-E26"/>
    <trip id="267" depart="1468.50" from="E26" to="E27"/>
    <trip id="268" depart="1474.00" from="-E21" to="-E26"/>
    <trip id="269" depart="1479.50" from="-E25" to="E25"/>
    <trip id="270" depart="1485.00" from="E26" to="E21"/>
    <trip id="271" depart="1490.50" from="E14" to="-E26"/>
    <trip id="272" depart="1496.00" from="E14" to="E25"/>
    <trip id="273" depart="1501.50" from="-E21" to="E25"/>
    <trip id="274" depart="1507.00" from="E26" to="E24"/>
    <trip id="275" depart="1512.50" from="-E21" to="E27"/>
    <trip id="276" depart="1518.00" from="E14" to="E21"/>
    <trip id="277" depart="1523.50" from="-E27" to="E21"/>
    <trip id="278" depart="1529.00" from="-E27" to="E21"/>
    <trip id="279" depart="1534.50" from="E26" to="E27"/>
    <trip id="280" depart="1540.00" from="-E21" to="E27"/>
    <trip id="281" depart="1545.50" from="E14" to="E27"/>
    <trip id="282" depart="1551.00" from="E14" to="E24"/>
    <trip id="283" depart="1556.50" from="E14" to="E27"/>
    <trip id="284" depart="1562.00" from="-E25" to="E27"/>
    <trip id="285" depart="1567.50" from="-E27" to="E24"/>
    <trip id="286" depart="1573.00" from="-E27" to="E25"/>
    <trip id="287" depart="1578.50" from="-E25" to="E27"/>
    <trip id="288" depart="1584.00" from="E26" to="-E26"/>
    <trip id="289" depart="1589.50" from="E26" to="E21"/>
    <trip id="290" depart="1595.00" from="-E27" to="E25"/>
    <trip id="291" depart="1600.50" from="-E25" to="-E26"/>
    <trip id="292" depart="1606.00" from="E26" to="-E26"/>
    <trip id="293" depart="1611.50" from="-E25" to="E25"/>
    <trip id="294" depart="1617.00" from="-E25" to="E27"/>
    <trip id="295" depart="1622.50" from="E14" to="E21"/>
    <trip id="296" depart="1628.00" from="-E21" to="E27"/>
    <trip id="297" depart="1633.50" from="-E21" to="E25"/>
    <trip id="298" depart="1639.00" from="-E27" to="E25"/>
    <trip id="299" depart="1644.50" from="E14" to="E25"/>
    <trip id="300" depart="1650.00" from="-E27" to="E25"/>
    <trip id="301" depart="1655.50" from="-E21" to="E21"/>
    <trip id="302" depart="1661.00" from="E14" to="E21"/>
    <trip id="303" depart="1666.50" from="-E27" to="E24"/>
    <trip id="304" depart="1672.00" from="-E27" to="E24"/>
    <trip id="305" depart="1677.50" from="E14" to="E21"/>
    <trip id="306" depart="1683.00" from="E14" to="E21"/>
    <trip id="307" depart="1688.50" from="-E25" to="-E26"/>
    <trip id="308" depart="1694.00" from="-E21" to="-E26"/>
    <trip id="309" depart="1699.50" from="-E27" to="E25"/>
    <trip id="310" depart="1705.00" from="-E21" to="E21"/>
    <trip id="311" depart="1710.50" from="-E27" to="E25"/>
    <trip id="312" depart="1716.00" from="E26" to="E24"/>
    <trip id="313" depart="1721.50" from="-E25" to="-E26"/>
    <trip id="314" depart="1727.00" from="-E21" to="E21"/>
    <trip id="315" depart="1732.50" from="-E21" to="-E26"/>
    <trip id="316" depart="1738.00" from="-E27" to="E21"/>
    <trip id="317" depart="1743.50" from="E26" to="E24"/>
    <trip id="318" depart="1749.00" from="E14" to="-E26"/>
    <trip id="319" depart="1754.50" from="E26" to="E24"/>
    <trip id="320" depart="1760.00" from="E26" to="E24"/>
    <trip id="321" depart="1765.50" from="-E27" to="E24"/>
    <trip id="322" depart="1771.00" from="-E21" to="-E26"/>
    <trip id="323" depart="1776.50" from="E26" to="E24"/>
    <trip id="324" depart="1782.00" from="E26" to="E21"/>
    <trip id="325" depart="1787.50" from="-E21" to="E25"/>
    <trip id="326" depart="1793.00" from="-E21" to="-E26"/>
    <trip id="327" depart="1798.50" from="-E27" to="E21"/>
    <trip id="328" depart="1804.00" from="E26" to="-E26"/>
    <trip id="329" depart="1809.50" from="E14" to="E24"/>
    <trip id="330" depart="1815.00" from="E16" to="E21"/>
    <trip id="331" depart="1820.50" from="-E27" to="E24"/>
    <trip id="332" depart="1826.00" from="-E27" to="E27"/>
    <trip id="333" depart="1831.50" from="E26" to="E21"/>
    <trip id="334" depart="1837.00" from="E14" to="E25"/>
    <trip id="335" depart="1842.50" from="E14" to="E27"/>
    <trip id="336" depart="1848.00" from="-E25" to="E21"/>
    <trip id="337" depart="1853.50" from="E14" to="-E26"/>
    <trip id="338" depart="1859.00" from="-E21" to="-E26"/>
    <trip id="339" depart="1864.50" from="-E21" to="E24"/>
    <trip id="340" depart="1870.00" from="E14" to="E21"/>
    <trip id="341" depart="1875.50" from="-E25" to="E25"/>
    <trip id="342" depart="1881.00" from="E14" to="E24"/>
    <trip id="343" depart="1886.50" from="E14" to="E27"/>
    <trip id="344" depart="1892.00" from="E15" to="E25"/>
    <trip id="345" depart="1897.50" from="E14" to="E27"/>
    <trip id="346" depart="1903.00" from="-E27" to="E24"/>
    <trip id="347" depart="1908.50" from="E14" to="E27"/>
    <trip id="348" depart="1914.00" from="E26" to="-E26"/>
    <trip id="349" depart="1919.50" from="-E21" to="E21"/>
    <trip id="350" depart="1925.00" from="E14" to="E24"/>
    <trip id="351" depart="1930.50" from="-E25" to="-E26"/>
    <trip id="352" depart="1936.00" from="E14" to="E25"/>
    <trip id="353" depart="1941.50" from="E26" to="E24"/>
    <trip id="354" depart="1947.00" from="-E27" to="-E26"/>
    <trip id="355" depart="1952.50" from="-E21" to="E24"/>
    <trip id="356" depart="1958.00" from="-E25" to="E21"/>
    <trip id="357" depart="1963.50" from="-E21" to="E27"/>
    <trip id="358" depart="1969.00" from="E26" to="E24"/>
    <trip id="359" depart="1974.50" from="E26" to="E27"/>
    <trip id="360" depart="1980.00" from="E14" to="E21"/>
    <trip id="361" depart="1985.50" from="-E21" to="E25"/>
    <trip id="362" depart="1991.00" from="-E27" to="E25"/>
    <trip id="363" depart="1996.50" from="E26" to="-E26"/>
    <trip id="364" depart="2002.00" from="-E27" to="E25"/>
    <trip id="365" depart="2007.50" from="-E27" to="-E26"/>
    <trip id="366" depart="2013.00" from="-E25" to="E21"/>
    <trip id="367" depart="2018.50" from="E14" to="E27"/>
    <trip id="368" depart="2024.00" from="-E25" to="E25"/>
    <trip id="369" depart="2029.50" from="-E25" to="E27"/>
    <trip id="370" depart="2035.00" from="E26" to="E24"/>
    <trip id="371" depart="2040.50" from="-E27" to="E21"/>
    <trip id="372" depart="2046.00" from="-E25" to="E27"/>
    <trip id="373" depart="2051.50" from="-E27" to="E24"/>
    <trip id="374" depart="2057.00" from="E26" to="E25"/>
    <trip id="375" depart="2062.50" from="-E27" to="E24"/>
    <trip id="376" depart="2068.00" from="-E21" to="E21"/>
    <trip id="377" depart="2073.50" from="E14" to="E25"/>
    <trip id="378" depart="2079.00" from="E14" to="E17"/>
    <trip id="379" depart="2084.50" from="-E27" to="E27"/>
    <trip id="380" depart="2090.00" from="-E27" to="E25"/>
    <trip id="381" depart="2095.50" from="-E21" to="E27"/>
    <trip id="382" depart="2101.00" from="E14" to="E21"/>
    <trip id="383" depart="2106.50" from="-E21" to="E24"/>
    <trip id="384" depart="2112.00" from="-E27" to="-E26"/>
    <trip id="385" depart="2117.50" from="E26" to="E27"/>
    <trip id="386" depart="2123.00" from="-E27" to="-E26"/>
    <trip id="387" depart="2128.50" from="E26" to="E24"/>
    <trip id="388" depart="2134.00" from="E14" to="E24"/>
    <trip id="389" depart="2139.50" from="-E25" to="E27"/>
    <trip id="390" depart="2145.00" from="E26" to="E21"/>
    <trip id="391" depart="2150.50" from="-E27" to="E21"/>
    <trip id="392" depart="2156.00" from="E26" to="E24"/>
    <trip id="393" depart="2161.50" from="E26" to="E27"/>
    <trip id="394" depart="2167.00" from="-E25" to="E25"/>
    <trip id="395" depart="2172.50" from="-E27" to="E27"/>
    <trip id="396" depart="2178.00" from="-E27" to="E27"/>
    <trip id="397" depart="2183.50" from="-E25" to="E21"/>
    <trip id="398" depart="2189.00" from="-E27" to="E27"/>
    <trip id="399" depart="2194.50" from="-E27" to="-E26"/>
    <trip id="400" depart="2200.00" from="-E27" to="E21"/>
    <trip id="401" depart="2205.50" from="-E27" to="E24"/>
    <trip id="402" depart="2211.00" from="-E27" to="E21"/>
    <trip id="403" depart="2216.50" from="-E21" to="E25"/>
    <trip id="404" depart="2222.00" from="-E27" to="E21"/>
    <trip id="405" depart="2227.50" from="E14" to="-E26"/>
    <trip id="406" depart="2233.00" from="E14" to="E25"/>
    <trip id="407" depart="2238.50" from="E26" to="E21"/>
    <trip id="408" depart="2244.00" from="E14" to="E27"/>
    <trip id="409" depart="2249.50" from="E26" to="E24"/>
    <trip id="410" depart="2255.00" from="-E21" to="E24"/>
    <trip id="411" depart="2260.50" from="-E27" to="E27"/>
    <trip id="412" depart="2266.00" from="E26" to="E24"/>
    <trip id="413" depart="2271.50" from="-E27" to="E24"/>
    <trip id="414" depart="2277.00" from="E14" to="E23"/>
    <trip id="415" depart="2282.50" from="E14" to="-E26"/>
    <trip id="416" depart="2288.00" from="-E27" to="E27"/>
    <trip id="417" depart="2293.50" from="-E25" to="E25"/>
    <trip id="418" depart="2299.00" from="E14" to="E27"/>
    <trip id="419" depart="2304.50" from="E26" to="E27"/>
    <trip id="420" depart="2310.00" from="-E25" to="E21"/>
    <trip id="421" depart="2315.50" from="E14" to="E25"/>
    <trip id="422" depart="2321.00" from="E26" to="-E26"/>
    <trip id="423" depart="2326.50" from="-E21" to="E25"/>
    <trip id="424" depart="2332.00" from="E26" to="E27"/>
    <trip id="425" depart="2337.50" from="E14" to="E24"/>
    <trip id="426" depart="2343.00" from="-E21" to="E25"/>
    <trip id="427" depart="2348.50" from="E26" to="E24"/>
    <trip id="428" depart="2354.00" from="E14" to="E27"/>
    <trip id="429" depart="2359.50" from="-E21" to="E25"/>
    <trip id="430" depart="2365.00" from="-E25" to="E21"/>
    <trip id="431" depart="2370.50" from="-E21" to="E24"/>
    <trip id="432" depart="2376.00" from="-E27" to="E25"/>
    <trip id="433" depart="2381.50" from="-E21" to="-E26"/>
    <trip id="434" depart="2387.00" from="E26" to="E25"/>
    <trip id="435" depart="2392.50" from="-E25" to="E27"/>
    <trip id="436" depart="2398.00" from="-E21" to="E24"/>
    <trip id="437" depart="2403.50" from="-E25" to="E21"/>
    <trip id="438" depart="2409.00" from="-E21" to="E27"/>
    <trip id="439" depart="2414.50" from="E26" to="E25"/>
    <trip id="440" depart="2420.00" from="-E21" to="E24"/>
    <trip id="441" depart="2425.50" from="-E25" to="E24"/>
    <trip id="442" depart="2431.00" from="E14" to="E24"/>
    <trip id="443" depart="2436.50" from="-E25" to="E27"/>
    <trip id="444" depart="2442.00" from="-E25" to="E21"/>
    <trip id="445" depart="2447.50" from="-E27" to="E21"/>
    <trip id="446" depart="2453.00" from="-E27" to="E24"/>
    <trip id="447" depart="2458.50" from="E26" to="E21"/>
    <trip id="448" depart="2464.00" from="E26" to="E25"/>
    <trip id="449" depart="2469.50" from="-E25" to="E24"/>
    <trip id="450" depart="2475.00" from="E14" to="E25"/>
    <trip id="451" depart="2480.50" from="-E21" to="E24"/>
    <trip id="452" depart="2486.00" from="-E27" to="E27"/>
    <trip id="453" depart="2491.50" from="-E25" to="E25"/>
    <trip id="454" depart="2497.00" from="E14" to="E21"/>
    <trip id="455" depart="2502.50" from="E14" to="E25"/>
    <trip id="456" depart="2508.00" from="E14" to="E25"/>
    <trip id="457" depart="2513.50" from="E14" to="E27"/>
    <trip id="458" depart="2519.00" from="E14" to="E27"/>
    <trip id="459" depart="2524.50" from="E14" to="E21"/>
    <trip id="460" depart="2530.00" from="-E27" to="E24"/>
    <trip id="461" depart="2535.50" from="E14" to="-E26"/>
    <trip id="462" depart="2541.00" from="-E25" to="E25"/>
    <trip id="463" depart="2546.50" from="-E21" to="-E26"/>
    <trip id="464" depart="2552.00" from="-E27" to="E27"/>
    <trip id="465" depart="2557.50" from="-E27" to="E27"/>
    <trip id="466" depart="2563.00" from="E26" to="E21"/>
    <trip id="467" depart="2568.50" from="E26" to="E24"/>
    <trip id="468" depart="2574.00" from="E26" to="E25"/>
    <trip id="469" depart="2579.50" from="-E25" to="-E26"/>
    <trip id="470" depart="2585.00" from="E26" to="-E26"/>
    <trip id="471" depart="2590.50" from="E26" to="E27"/>
    <trip id="472" depart="2596.00" from="E14" to="E27"/>
    <trip id="473" depart="2601.50" from="E26" to="E27"/>
    <trip id="474" depart="2607.00" from="-E25" to="E25"/>
    <trip id="475" depart="2612.50" from="-E21" to="E24"/>
    <trip id="476" depart="2618.00" from="-E27" to="E25"/>
    <trip id="477" depart="2623.50" from="E14" to="E24"/>
    <trip id="478" depart="2629.00" from="E26" to="E27"/>
    <trip id="479" depart="2634.50" from="-E21" to="E21"/>
    <trip id="480" depart="2640.00" from="-E21" to="E27"/>
    <trip id="481" depart="2645.50" from="-E27" to="E27"/>
    <trip id="482" depart="2651.00" from="-E25" to="-E26"/>
    <trip id="483" depart="2656.50" from="E26" to="E27"/>
    <trip id="484" depart="2662.00" from="-E25" to="E22"/>
    <trip id="485" depart="2667.50" from="-E21" to="E27"/>
    <trip id="486" depart="2673.00" from="-E25" to="E24"/>
    <trip id="487" depart="2678.50" from="-E21" to="E27"/>
    <trip id="488" depart="2684.00" from="-E21" to="E24"/>
    <trip id="489" depart="2689.50" from="E14" to="E25"/>
    <trip id="490" depart="2695.00" from="E26" to="E24"/>
    <trip id="491" depart="2700.50" from="E14" to="-E26"/>
    <trip id="492" depart="2706.00" from="-E27" to="-E26"/>
    <trip id="493" depart="2711.50" from="-E27" to="E22"/>
    <trip id="494" depart="2717.00" from="E26" to="-E26"/>
    <trip id="495" depart="2722.50" from="-E25" to="E24"/>
    <trip id="496" depart="2728.00" from="E26" to="E27"/>
    <trip id="497" depart="2733.50" from="-E21" to="E25"/>
    <trip id="498" depart="2739.00" from="-E27" to="E27"/>
    <trip id="499" depart="2744.50" from="-E25" to="E21"/>
    <trip id="500" depart="2750.00" from="-E21" to="-E26"/>
    <trip id="501" depart="2755.50" from="E26" to="E24"/>
    <trip id="502" depart="2761.00" from="E14" to="E25"/>
    <trip id="503" depart="2766.50" from="E14" to="-E26"/>
    <trip id="504" depart="2772.00" from="E14" to="E21"/>
    <trip id="505" depart="2777.50" from="-E21" to="E24"/>
    <trip id="506" depart="2783.00" from="-E21" to="E25"/>
    <trip id="507" depart="2788.50" from="-E25" to="E21"/>