<?xml version="1.0" encoding="UTF-8"?>

<!-- generated on 2026-01-19 23:11:36.781015 by Eclipse SUMO randomTrips.py v1_25_0+0000-ac6c5a6752d
<configuration>
    <net-file value="new_hosmat.net.xml"/>
    <output-trip-file value="light.trips.xml"/>
    <fringe-factor value="100"/>
    <period value="5.5"/>
</configuration>
-->

<!-- generated on 2026-01-19T23:11:36.697133+05:30 by Eclipse SUMO duarouter 1.25.0
<duarouterConfiguration xmlns:xsi="http://www.w3.org/2001/XMLSchema-instance" xsi:noNamespaceSchemaLocation="http://sumo.dlr.de/xsd/duarouterConfiguration.xsd">

    <input>
        <net-file value="new_hosmat.net.xml"/>
        <route-files value="light.trips.xml"/>
    </input>

    <output>
        <output-file value="routes.rou.xml"/>
        <alternatives-output value="NUL"/>
    </output>

    <time>
        <begin value="0"/>
        <end value="3600"/>
    </time>

    <report>
        <no-warnings value="true"/>
        <ignore-errors value="true"/>
        <no-step-log value="true"/>
    </report>

</duarouterConfiguration>
-->

<routes xmlns:xsi="http://www.w3.org/2001/XMLSchema-instance" xsi:noNamespaceSchemaLocation="http://sumo.dlr.de/xsd/routes_file.xsd">
    <vehicle id="0" depart="0.00">
        <route edges="E14 E15 E16 E17 E22 -E26"/>
    </vehicle>
    <vehicle id="1" depart="5.50">
        <route edges="-E25 E18 E19 E20 E21"/>
    </vehicle>
    <vehicle id="2" depart="11.00">
        <route edges="E14 E15 E16 E17 E25"/>
    </vehicle>
    <vehicle id="3" depart="16.50">
        <route edges="E26 E23 E20 E15 E16 E17 E22 -E26"/>
    </vehicle>
    <vehicle id="4" depart="22.00">
        <route edges="-E27 -E26"/>
    </vehicle>
    <vehicle id="5" depart="27.50">
        <route edges="-E25 E18 E19 E24"/>
    </vehicle>
    <vehicle id="6" depart="33.00">
        <route edges="-E21 E15"/>
    </vehicle>
    <vehicle id="7" depart="38.50">
        <route edges="E14 -E20 E24"/>
    </vehicle>
    <vehicle id="8" depart="44.00">
        <route edges="-E25 E18 E19 E24"/>
    </vehicle>
    <vehicle id="9" depart="49.50">
        <route edges="E26 E23 E20 E15 E16 E17 E22 -E26"/>
    </vehicle>
    <vehicle id="10" depart="55.00">
        <route edges="E26 E23 E20 E15 E16 E17 E25"/>
    </vehicle>
    <vehicle id="11" depart="60.50">
        <route edges="-E25 E22 -E26"/>
    </vehicle>
    <vehicle id="12" depart="66.00">
        <route edges="E26 E23 E20 E21"/>
    </vehicle>
    <vehicle id="13" depart="71.50">
        <route edges="-E21 E15 E16 E17 E22 -E26"/>
    </vehicle>
    <vehicle id="14" depart="77.00">
        <route edges="E26 E23 E24"/>
    </vehicle>
    <vehicle id="15" depart="82.50">
        <route edges="E26 E23 E20 E15 E16 E17 E25"/>
    </vehicle>
    <vehicle id="16" depart="88.00">
        <route edges="-E27 E23 E20 E15 E16 E17 E22 E27"/>
    </vehicle>
    <vehicle id="17" depart="93.50">
        <route edges="-E25 E18 E19 E24"/>
    </vehicle>
    <vehicle id="18" depart="99.00">
        <route edges="E26 E23 E20 E15 E16 E17 E25"/>
    </vehicle>
    <vehicle id="19" depart="104.50">
        <route edges="E26 E23 E24"/>
    </vehicle>
    <vehicle id="20" depart="110.00">
        <route edges="E14 E15 E16 E17 E22 -E26"/>
    </vehicle>
    <vehicle id="21" depart="115.50">
        <route edges="-E25 E18 E19 E20 E21"/>
    </vehicle>
    <vehicle id="22" depart="121.00">
        <route edges="-E21 E15 E16 E17 E18 E19 E20 E21"/>
    </vehicle>
    <vehicle id="23" depart="126.50">
        <route edges="-E21 E15 E16 E17 E18 E19 E20 E21"/>
    </vehicle>
    <vehicle id="24" depart="132.00">
        <route edges="E14 E21"/>
    </vehicle>
    <vehicle id="25" depart="137.50">
        <route edges="-E25 E18 E19 E20"/>
    </vehicle>
    <vehicle id="26" depart="143.00">
        <route edges="-E25 E22 E27"/>
    </vehicle>
    <vehicle id="27" depart="148.50">
        <route edges="E14 E15 E16 E17 E25"/>
    </vehicle>
    <vehicle id="28" depart="154.00">
        <route edges="-E21 E15 E16 E17 E25"/>
    </vehicle>
    <vehicle id="29" depart="159.50">
        <route edges="-E21 E15 E16 E17 E18 E19 E20 E21"/>
    </vehicle>
    <vehicle id="30" depart="165.00">
        <route edges="E26 E23 E20 E15 E16 E17 E25"/>
    </vehicle>
    <vehicle id="31" depart="170.50">
        <route edges="-E27 E23 E20 E15 E16 E17 E25"/>
    </vehicle>
    <vehicle id="32" depart="176.00">
        <route edges="E26 E23 E20 E15 E16 E17 E25"/>
    </vehicle>
    <vehicle id="33" depart="181.50">
        <route edges="-E25 E22 -E26"/>
    </vehicle>
    <vehicle id="34" depart="187.00">
        <route edges="-E25 E18 E19 E20 E21"/>
    </vehicle>
    <vehicle id="35" depart="192.50">
        <route edges="-E25 E22 E27"/>
    </vehicle>
    <vehicle id="36" depart="198.00">
        <route edges="E26 E23 E20 E21"/>
    </vehicle>
    <vehicle id="37" depart="203.50">
        <route edges="E14 E21"/>
    </vehicle>
    <vehicle id="38" depart="209.00">
        <route edges="E26 E23 E24"/>
    </vehicle>
    <vehicle id="39" depart="214.50">
        <route edges="-E25 E18 E19 E20 E21"/>
    </vehicle>
    <vehicle id="40" depart="220.00">
        <route edges="-E27 E23 E20 E21"/>
    </vehicle>
    <vehicle id="41" depart="225.50">
        <route edges="-E27 E23 E20 E15 E16 E17 E22 E27"/>
    </vehicle>
    <vehicle id="42" depart="231.00">
        <route edges="-E27 E23 E20 E21"/>
    </vehicle>
    <vehicle id="43" depart="236.50">
        <route edges="E26 E23 E24"/>
    </vehicle>
    <vehicle id="44" depart="242.00">
        <route edges="-E21 E15 E16 E17 E22 -E26"/>
    </vehicle>
    <vehicle id="45" depart="247.50">
        <route edges="-E21 E15 E16 E17 E25"/>
    </vehicle>
    <vehicle id="46" depart="253.00">
        <route edges="E17 E18 E19 E24"/>
    </vehicle>
    <vehicle id="47" depart="258.50">
        <route edges="-E21 E15 E16 E17 E18 E19 E20 E21"/>
    </vehicle>
    <vehicle id="48" depart="264.00">
        <route edges="E26 E23 E24"/>
    </vehicle>
    <vehicle id="49" depart="269.50">
        <route edges="E26 E27"/>
    </vehicle>
    <vehicle id="50" depart="275.00">
        <route edges="-E21 E15 E16 E17 E25"/>
    </vehicle>
    <vehicle id="51" depart="280.50">
        <route edges="E14 -E20 E24"/>
    </vehicle>
    <vehicle id="52" depart="286.00">
        <route edges="-E25 E18 E19 E20 E15 E16 E17 E25"/>
    </vehicle>
    <vehicle id="53" depart="291.50">
        <route edges="-E21 -E20 E24"/>
    </vehicle>
    <vehicle id="54" depart="297.00">
        <route edges="-E27 E23 E20 E15 E16 E17 E22 E27"/>
    </vehicle>
    <vehicle id="55" depart="302.50">
        <route edges="E26 E23 E20 E21"/>
    </vehicle>
    <vehicle id="56" depart="308.00">
        <route edges="-E27 -E26"/>
    </vehicle>
    <vehicle id="57" depart="313.50">
        <route edges="E26 E27"/>
    </vehicle>
    <vehicle id="58" depart="319.00">
        <route edges="-E25 E18 E19 E20 E15 E16 E17 E25"/>
    </vehicle>
    <vehicle id="59" depart="324.50">
        <route edges="E14 E15 E16 E17 E22 -E26"/>
    </vehicle>
    <vehicle id="60" depart="330.00">
        <route edges="E14 -E20 E24"/>
    </vehicle>
    <vehicle id="61" depart="335.50">
        <route edges="E14 -E20 E24"/>
    </vehicle>
    <vehicle id="62" depart="341.00">
        <route edges="-E21 E15 E16 E17 E22 E27"/>
    </vehicle>
    <vehicle id="63" depart="346.50">
        <route edges="E26 E27"/>
    </vehicle>
    <vehicle id="64" depart="352.00">
        <route edges="-E25 E22 -E26"/>
    </vehicle>
    <vehicle id="65" depart="357.50">
        <route edges="E26 E27"/>
    </vehicle>
    <vehicle id="66" depart="363.00">
        <route edges="-E21 -E20 E24"/>
    </vehicle>
    <vehicle id="67" depart="368.50">
        <route edges="-E21 E15 E16 E17 E25"/>
    </vehicle>
    <vehicle id="68" depart="374.00">
        <route edges="E14 E15 E16 E17 E22 -E26"/>
    </vehicle>
    <vehicle id="69" depart="379.50">
        <route edges="-E27 E23 E24"/>
    </vehicle>
    <vehicle id="70" depart="385.00">
        <route edges="-E25 E22 E27"/>
    </vehicle>
    <vehicle id="71" depart="390.50">
        <route edges="-E27 E23 E20 E21"/>
    </vehicle>
    <vehicle id="72" depart="396.00">
        <route edges="-E27 E23 E20 E15 E16 E17 E25"/>
    </vehicle>
    <vehicle id="73" depart="401.50">
        <route edges="-E25 E18 E19 E20 E21"/>
    </vehicle>
    <vehicle id="74" depart="407.00">
        <route edges="E26 E23 E20 E15 E16 E17 E25"/>
    </vehicle>
    <vehicle id="75" depart="412.50">
        <route edges="-E27 E23 E24"/>
    </vehicle>
    <vehicle id="76" depart="418.00">
        <route edges="-E21 E15 E16 E17 E18 E19 E20 E21"/>
    </vehicle>
    <vehicle id="77" depart="423.50">
        <route edges="-E25 E18 E19 E24"/>
    </vehicle>
    <vehicle id="78" depart="429.00">
        <route edges="-E25 E18 E19 E20 E21"/>
    </vehicle>
    <vehicle id="79" depart="434.50">
        <route edges="-E21 E15 E16 E17 E25"/>
    </vehicle>
    <vehicle id="80" depart="440.00">
        <route edges="-E25 E22 E27"/>
    </vehicle>
    <vehicle id="81" depart="445.50">
        <route edges="E26 E23 E20 E15 E16 E17 E22 -E26"/>
    </vehicle>
    <vehicle id="82" depart="451.00">
        <route edges="-E25 E18 E19 E20 E15 E16 E17 E25"/>
    </vehicle>
    <vehicle id="83" depart="456.50">
        <route edges="-E25 E22 -E26"/>
    </vehicle>
    <vehicle id="84" depart="462.00">
        <route edges="E26 E23 E24"/>
    </vehicle>
    <vehicle id="85" depart="467.50">
        <route edges="-E27 E23 E20 E15 E16 E17 E25"/>
    </vehicle>
    <vehicle id="86" depart="473.00">
        <route edges="E26 E23 E20 E15 E16 E17 E22 -E26"/>
    </vehicle>
    <vehicle id="87" depart="478.50">
        <route edges="-E21 -E20 E24"/>
    </vehicle>
    <vehicle id="88" depart="484.00">
        <route edges="-E27 E23 E24"/>
    </vehicle>
    <vehicle id="89" depart="489.50">
        <route edges="E14 E15 E16 E17 E25"/>
    </vehicle>
    <vehicle id="90" depart="495.00">
        <route edges="E26 E23 E20 E15 E16 E17 E22 -E26"/>
    </vehicle>
    <vehicle id="91" depart="500.50">
        <route edges="-E27 E23 E20 E21"/>
    </vehicle>
    <vehicle id="92" depart="506.00">
        <route edges="E26 E23 E20 E21"/>
    </vehicle>
    <vehicle id="93" depart="511.50">
        <route edges="-E21 -E20 E24"/>
    </vehicle>
    <vehicle id="94" depart="517.00">
        <route edges="-E27 E23 E20 E21"/>
    </vehicle>
    <vehicle id="95" depart="522.50">
        <route edges="-E25 E22 E27"/>
    </vehicle>
    <vehicle id="96" depart="528.00">
        <route edges="-E27 E23 E20 E15 E16 E17 E22 E27"/>
    </vehicle>
    <vehicle id="97" depart="533.50">
        <route edges="-E27 -E26"/>
    </vehicle>
    <vehicle id="98" depart="539.00">
        <route edges="E26 E27"/>
    </vehicle>
    <vehicle id="99" depart="544.50">
        <route edges="E26 E27"/>
    </vehicle>
    <vehicle id="100" depart="550.00">
        <route edges="E26 E23 E20 E15 E16 E17 E22 -E26"/>
    </vehicle>
    <vehicle id="101" depart="555.50">
        <route edges="-E27 E23 E20 E21"/>
    </vehicle>
    <vehicle id="102" depart="561.00">
        <route edges="-E27 -E26"/>
    </vehicle>
    <vehicle id="103" depart="566.50">
        <route edges="-E25 E22 E27"/>
    </vehicle>
    <vehicle id="104" depart="572.00">
        <route edges="-E25 E18 E19 E20 E15 E16 E17 E25"/>
    </vehicle>
    <vehicle id="105" depart="577.50">
        <route edges="-E27 E23 E24"/>
    </vehicle>
    <vehicle id="106" depart="583.00">
        <route edges="E26 E27"/>
    </vehicle>
    <vehicle id="107" depart="588.50">
        <route edges="-E27 E23 E20 E15 E16 E17 E25"/>
    </vehicle>
    <vehicle id="108" depart="594.00">
        <route edges="-E21 E15 E16 E17 E18 E19 E20 E21"/>
    </vehicle>
    <vehicle id="109" depart="599.50">
        <route edges="E26 E23 E24"/>
    </vehicle>
    <vehicle id="110" depart="605.00">
        <route edges="-E27 E23 E20 E15 E16 E17 E25"/>
    </vehicle>
    <vehicle id="111" depart="610.50">
        <route edges="-E21 -E20 E24"/>
    </vehicle>
    <vehicle id="112" depart="616.00">
        <route edges="-E27 E23 E20 E15 E16 E17 E22 E27"/>
    </vehicle>
    <vehicle id="113" depart="621.50">
        <route edges="-E21 E15 E16 E17 E22 E27"/>
    </vehicle>
    <vehicle id="114" depart="627.00">
        <route edges="-E21 E15 E16 E17 E22 -E26"/>
    </vehicle>
    <vehicle id="115" depart="632.50">
        <route edges="E14 E15 E16 E17 E25"/>
    </vehicle>
    <vehicle id="116" depart="638.00">
        <route edges="-E25 E22 -E26"/>
    </vehicle>
    <vehicle id="117" depart="643.50">
        <route edges="E26 E23 E20 E21"/>
    </vehicle>
    <vehicle id="118" depart="649.00">
        <route edges="E14 E15 E16 E17 E25"/>
    </vehicle>
    <vehicle id="119" depart="654.50">
        <route edges="-E27 E23 E24"/>
    </vehicle>
    <vehicle id="120" depart="660.00">
        <route edges="-E27 E23 E20 E15 E16 E17 E22 E27"/>
    </vehicle>
    <vehicle id="121" depart="665.50">
        <route edges="-E25 E18 E19 E20 E15 E16 E17 E25"/>
    </vehicle>
    <vehicle id="122" depart="671.00">
        <route edges="-E25 E18 E19 E20 E21"/>
    </vehicle>
    <vehicle id="123" depart="676.50">
        <route edges="E14 E21"/>
    </vehicle>
    <vehicle id="124" depart="682.00">
        <route edges="-E25 E18 E19 E20 E15 E16 E17 E25"/>
    </vehicle>
    <vehicle id="125" depart="687.50">
        <route edges="-E21 -E20 E24"/>
    </vehicle>
    <vehicle id="126" depart="693.00">
        <route edges="E26 E27"/>
    </vehicle>
    <vehicle id="127" depart="698.50">
        <route edges="-E21 E15 E16 E17 E18 E19 E20 E21"/>
    </vehicle>
    <vehicle id="128" depart="704.00">
        <route edges="-E25 E22 E27"/>
    </vehicle>
    <vehicle id="129" depart="709.50">
        <route edges="E26 E27"/>
    </vehicle>
    <vehicle id="130" depart="715.00">
        <route edges="-E25 E22 -E26"/>
    </vehicle>
    <vehicle id="131" depart="720.50">
        <route edges="E26 E23 E20 E15 E16 E17 E25"/>
    </vehicle>
    <vehicle id="132" depart="726.00">
        <route edges="E14 E15 E16 E17 E22 E27"/>
    </vehicle>
    <vehicle id="133" depart="731.50">
        <route edges="E14 E15 E16 E17 E22 -E26"/>
    </vehicle>
    <vehicle id="134" depart="737.00">
        <route edges="E26 E23 E20 E21"/>
    </vehicle>
    <vehicle id="135" depart="742.50">
        <route edges="E14 E15 E16 E17 E22 E27"/>
    </vehicle>
    <vehicle id="136" depart="748.00">
        <route edges="-E21 E15 E16 E17 E22 -E26"/>
    </vehicle>
    <vehicle id="137" depart="753.50">
        <route edges="-E21 -E20 E24"/>
    </vehicle>
    <vehicle id="138" depart="759.00">
        <route edges="-E25 E18 E19 E24"/>
    </vehicle>
    <vehicle id="139" depart="764.50">
        <route edges="E14 E15 E16 E17"/>
    </vehicle>
    <vehicle id="140" depart="770.00">
        <route edges="E14 E21"/>
    </vehicle>
    <vehicle id="141" depart="775.50">
        <route edges="-E27 E23 E20 E15 E16 E17 E22 E27"/>
    </vehicle>
    <vehicle id="142" depart="781.00">
        <route edges="E26 E23 E20 E15 E16 E17 E22 -E26"/>
    </vehicle>
    <vehicle id="143" depart="786.50">
        <route edges="-E27 E23 E20 E21"/>
    </vehicle>
    <vehicle id="144" depart="792.00">
        <route edges="-E21 E15 E16 E17 E25"/>
    </vehicle>
    <vehicle id="145" depart="797.50">
        <route edges="E14 E21"/>
    </vehicle>
    <vehicle id="146" depart="803.00">
        <route edges="E14 -E20 E24"/>
    </vehicle>
    <vehicle id="147" depart="808.50">
        <route edges="-E27 -E26"/>
    </vehicle>
    <vehicle id="148" depart="814.00">
        <route edges="-E21 E15 E16 E17 E22 E27"/>
    </vehicle>
    <vehicle id="149" depart="819.50">
        <route edges="E26 E23 E24"/>
    </vehicle>
    <vehicle id="150" depart="825.00">
        <route edges="E26 E23 E24"/>
    </vehicle>
    <vehicle id="151" depart="830.50">
        <route edges="-E21 E15 E16 E17 E22 -E26"/>
    </vehicle>
    <vehicle id="152" depart="836.00">
        <route edges="-E25 E22 E27"/>
    </vehicle>
    <vehicle id="153" depart="841.50">
        <route edges="E19 E20 E15 E16 E17 E22 E27"/>
    </vehicle>
    <vehicle id="154" depart="847.00">
        <route edges="E26 E23 E20"/>
    </vehicle>
    <vehicle id="155" depart="852.50">
        <route edges="-E25 E22 -E26"/>
    </vehicle>
    <vehicle id="156" depart="858.00">
        <route edges="E14 E15 E16 E17 E22 E27"/>
    </vehicle>
    <vehicle id="157" depart="863.50">
        <route edges="-E27 E23 E20 E15 E16 E17 E25"/>
    </vehicle>
    <vehicle id="158" depart="869.00">
        <route edges="-E21 E15 E16 E17 E22 E27"/>
    </vehicle>
    <vehicle id="159" depart="874.50">
        <route edges="E26 E27"/>
    </vehicle>
    <vehicle id="160" depart="880.00">
        <route edges="E26 E27"/>
    </vehicle>
    <vehicle id="161" depart="885.50">
        <route edges="-E21 E15 E16 E17 E25"/>
    </vehicle>
    <vehicle id="162" depart="891.00">
        <route edges="-E25 E22 E27"/>
    </vehicle>
    <vehicle id="163" depart="896.50">
        <route edges="E23 E20 E15 E16 E17 E22 E27"/>
    </vehicle>
    <vehicle id="164" depart="902.00">
        <route edges="E26 E23 E20 E21"/>
    </vehicle>
    <vehicle id="165" depart="907.50">
        <route edges="E14 E15 E16 E17 E22 -E26"/>
    </vehicle>
    <vehicle id="166" depart="913.00">
        <route edges="E26 E27"/>
    </vehicle>
    <vehicle id="167" depart="918.50">
        <route edges="-E25 E22 E27"/>
    </vehicle>
    <vehicle id="168" depart="924.00">
        <route edges="-E27 E23 E20 E21"/>
    </vehicle>
    <vehicle id="169" depart="929.50">
        <route edges="E18 E19 E20 E21"/>
    </vehicle>
    <vehicle id="170" depart="935.00">
        <route edges="-E21 E15 E16 E17 E22 -E26"/>
    </vehicle>
    <vehicle id="171" depart="940.50">
        <route edges="-E25 E22 E27"/>
    </vehicle>
    <vehicle id="172" depart="946.00">
        <route edges="E26 E23 E20 E21"/>
    </vehicle>
    <vehicle id="173" depart="951.50">
        <route edges="E14 E21"/>
    </vehicle>
    <vehicle id="174" depart="957.00">
        <route edges="E26 E23 E24"/>
    </vehicle>
    <vehicle id="175" depart="962.50">
        <route edges="E26 E23 E20 E15 E16 E17 E22 -E26"/>
    </vehicle>
    <vehicle id="176" depart="968.00">
        <route edges="E26 E23 E20 E15 E16 E17 E22 -E26"/>
    </vehicle>
    <vehicle id="177" depart="973.50">
        <route edges="E26 E23 E20 E21"/>
    </vehicle>
    <vehicle id="178" depart="979.00">
        <route edges="-E21 -E20 E24"/>
    </vehicle>
    <vehicle id="179" depart="984.50">
        <route edges="E14 E21"/>
    </vehicle>
    <vehicle id="180" depart="990.00">
        <route edges="E14 -E20 E24"/>
    </vehicle>
    <vehicle id="181" depart="995.50">
        <route edges="-E25 E18 E19 E24"/>
    </vehicle>
    <vehicle id="182" depart="1001.00">
        <route edges="-E25 E18 E19 E20 E15 E16 E17 E25"/>
    </vehicle>
    <vehicle id="183" depart="1006.50">
        <route edges="-E27 E23 E20 E15 E16 E17 E25"/>
    </vehicle>
    <vehicle id="184" depart="1012.00">
        <route edges="E14 E15 E16 E17 E25"/>
    </vehicle>
    <vehicle id="185" depart="1017.50">
        <route edges="-E25 E22 -E26"/>
    </vehicle>
    <vehicle id="186" depart="1023.00">
        <route edges="E14 E21"/>
    </vehicle>
    <vehicle id="187" depart="1028.50">
        <route edges="-E25 E22 E27"/>
    </vehicle>
    <vehicle id="188" depart="1034.00">
        <route edges="E14 E21"/>
    </vehicle>
    <vehicle id="189" depart="1039.50">
        <route edges="-E25 E22"/>
    </vehicle>
    <vehicle id="190" depart="1045.00">
        <route edges="-E27 E23 E20 E21"/>
    </vehicle>
    <vehicle id="191" depart="1050.50">
        <route edges="-E21 -E20 E24"/>
    </vehicle>
    <vehicle id="192" depart="1056.00">
        <route edges="E26 E23 E20 E15 E16 E17 E25"/>
    </vehicle>
    <vehicle id="193" depart="1061.50">
        <route edges="E26 E23 E20 E15 E16 E17 E25"/>
    </vehicle>
    <vehicle id="194" depart="1067.00">
        <route edges="-E25 E18 E19 E24"/>
    </vehicle>
    <vehicle id="195" depart="1072.50">
        <route edges="-E27 E23 E24"/>
    </vehicle>
    <vehicle id="196" depart="1078.00">
        <route edges="E14 -E20 E24"/>
    </vehicle>
    <vehicle id="197" depart="1083.50">
        <route edges="-E27 E23 E20 E21"/>
    </vehicle>
    <vehicle id="198" depart="1089.00">
        <route edges="-E27 E23 E20 E15 E16 E17 E22 E27"/>
    </vehicle>
    <vehicle id="199" depart="1094.50">
        <route edges="E19 E20 E15 E16 E17 E22 -E26"/>
    </vehicle>
    <vehicle id="200" depart="1100.00">
        <route edges="-E21 -E20 E24"/>
    </vehicle>
    <vehicle id="201" depart="1105.50">
        <route edges="E14 E21"/>
    </vehicle>
    <vehicle id="202" depart="1111.00">
        <route edges="E26 E23 E20 E15 E16 E17 E25"/>
    </vehicle>
    <vehicle id="203" depart="1116.50">
        <route edges="E14 E21"/>
    </vehicle>
    <vehicle id="204" depart="1122.00">
        <route edges="-E25 E22 -E26"/>
    </vehicle>
    <vehicle id="205" depart="1127.50">
        <route edges="-E25 E18 E19 E24"/>
    </vehicle>
    <vehicle id="206" depart="1133.00">
        <route edges="E26 E23 E20 E15 E16 E17 E22 -E26"/>
    </vehicle>
    <vehicle id="207" depart="1138.50">
        <route edges="-E27 E23 E20 E15 E16 E17 E25"/>
    </vehicle>
    <vehicle id="208" depart="1144.00">
        <route edges="-E21 E15 E16 E17 E25"/>
    </vehicle>
    <vehicle id="209" depart="1149.50">
        <route edges="-E27 E23 E20 E21"/>
    </vehicle>
    <vehicle id="210" depart="1155.00">
        <route edges="E14 E15 E16 E17 E22 -E26"/>
    </vehicle>
    <vehicle id="211" depart="1160.50">
        <route edges="E14 E15 E16 E17 E25"/>
    </vehicle>
    <vehicle id="212" depart="1166.00">
        <route edges="-E21 -E20 E24"/>
    </vehicle>
    <vehicle id="213" depart="1171.50">
        <route edges="-E21 E15 E16 E17 E22 E27"/>
    </vehicle>
    <vehicle id="214" depart="1177.00">
        <route edges="-E27 -E26"/>
    </vehicle>
    <vehicle id="215" depart="1182.50">
        <route edges="-E25 E22 E27"/>
    </vehicle>
    <vehicle id="216" depart="1188.00">
        <route edges="-E27 E23 E20 E15 E16 E17 E25"/>
    </vehicle>
    <vehicle id="217" depart="1193.50">
        <route edges="E14 E15 E16 E17 E22 E27"/>
    </vehicle>
    <vehicle id="218" depart="1199.00">
        <route edges="E14 E15 E16 E17 E22 E27"/>
    </vehicle>
    <vehicle id="219" depart="1204.50">
        <route edges="E26 E23 E20 E15 E16 E17 E25"/>
    </vehicle>
    <vehicle id="220" depart="1210.00">
        <route edges="E14 -E20 E24"/>
    </vehicle>
    <vehicle id="221" depart="1215.50">
        <route edges="E26 E23 E24"/>
    </vehicle>
    <vehicle id="222" depart="1221.00">
        <route edges="E26 E23 E20 E15 E16 E17 E25"/>
    </vehicle>
    <vehicle id="223" depart="1226.50">
        <route edges="-E27 E23 E20 E21"/>
    </vehicle>
    <vehicle id="224" depart="1232.00">
        <route edges="-E25 E18 E19 E20 E15 E16 E17 E25"/>
    </vehicle>
    <vehicle id="225" depart="1237.50">
        <route edges="E14 -E20 E24"/>
    </vehicle>
    <vehicle id="226" depart="1243.00">
        <route edges="E14 E21"/>
    </vehicle>
    <vehicle id="227" depart="1248.50">
        <route edges="-E21 E15 E16 E17 E18 E19 E20 E21"/>
    </vehicle>
    <vehicle id="228" depart="1254.00">
        <route edges="-E25 E18 E19 E20 E21"/>
    </vehicle>
    <vehicle id="229" depart="1259.50">
        <route edges="-E27 -E26"/>
    </vehicle>
    <vehicle id="230" depart="1265.00">
        <route edges="-E25 E18 E19 E20 E15 E16 E17 E25"/>
    </vehicle>
    <vehicle id="231" depart="1270.50">
        <route edges="E14 E15 E16 E17 E22 -E26"/>
    </vehicle>
    <vehicle id="232" depart="1276.00">
        <route edges="-E27 E23 E24"/>
    </vehicle>
    <vehicle id="233" depart="1281.50">
        <route edges="-E27 E23 E20 E15 E16 E17 E18 E19"/>
    </vehicle>
    <vehicle id="234" depart="1287.00">
        <route edges="-E27 E23 E20 E15 E16 E17 E22 E27"/>
    </vehicle>
    <vehicle id="235" depart="1292.50">
        <route edges="-E27 E23 E20 E15 E16 E17 E25"/>
    </vehicle>
    <vehicle id="236" depart="1298.00">
        <route edges="E26 E23 E20 E15 E16 E17 E25"/>
    </vehicle>
    <vehicle id="237" depart="1303.50">
        <route edges="-E25 E22 -E26"/>
    </vehicle>
    <vehicle id="238" depart="1309.00">
        <route edges="-E25 E18 E19 E20 E15 E16 E17 E25"/>
    </vehicle>
    <vehicle id="239" depart="1314.50">
        <route edges="E26 E27"/>
    </vehicle>
    <vehicle id="240" depart="1320.00">
        <route edges="-E27 E23 E20 E15 E16 E17 E25"/>
    </vehicle>
    <vehicle id="241" depart="1325.50">
        <route edges="-E27 E23 E24"/>
    </vehicle>
    <vehicle id="242" depart="1331.00">
        <route edges="-E25 E18 E19 E20 E21"/>
    </vehicle>
    <vehicle id="243" depart="1336.50">
        <route edges="-E27 -E26"/>
    </vehicle>
    <vehicle id="244" depart="1342.00">
        <route edges="-E25 E18 E19 E20 E15 E16 E17 E25"/>
    </vehicle>
    <vehicle id="245" depart="1347.50">
        <route edges="-E27 -E26"/>
    </vehicle>
    <vehicle id="246" depart="1353.00">
        <route edges="-E27 -E26"/>
    </vehicle>
    <vehicle id="247" depart="1358.50">
        <route edges="E14 E15 E16 E17 E22 -E26"/>
    </vehicle>
    <vehicle id="248" depart="1364.00">
        <route edges="-E25 E18 E19 E24"/>
    </vehicle>
    <vehicle id="249" depart="1369.50">
        <route edges="-E21 E15 E16 E17 E25"/>
    </vehicle>
    <vehicle id="250" depart="1375.00">
        <route edges="-E21 -E20 E24"/>
    </vehicle>
    <vehicle id="251" depart="1380.50">
        <route edges="-E21 E15 E16 E17 E18 E19 E20 E21"/>
    </vehicle>
    <vehicle id="252" depart="1386.00">
        <route edges="-E25 E18 E19 E20 E21"/>
    </vehicle>
    <vehicle id="253" depart="1391.50">
        <route edges="E14 E21"/>
    </vehicle>
    <vehicle id="254" depart="1397.00">
        <route edges="E14 E15 E16 E17 E22 E27"/>
    </vehicle>
    <vehicle id="255" depart="1402.50">
        <route edges="-E25 E22 -E26"/>
    </vehicle>
    <vehicle id="256" depart="1408.00">
        <route edges="-E21 -E20 E24"/>
    </vehicle>
    <vehicle id="257" depart="1413.50">
        <route edges="E26 E23 E20 E21"/>
    </vehicle>
    <vehicle id="258" depart="1419.00">
        <route edges="E14 E15 E16 E17 E25"/>
    </vehicle>
    <vehicle id="259" depart="1424.50">
        <route edges="E14 E15 E16 E17 E25"/>
    </vehicle>
    <vehicle id="260" depart="1430.00">
        <route edges="E26 E23 E20 E15"/>
    </vehicle>
    <vehicle id="261" depart="1435.50">
        <route edges="-E21 E15 E16 E17 E22 -E26"/>
    </vehicle>
    <vehicle id="262" depart="1441.00">
        <route edges="-E21 E15 E16 E17 E25"/>
    </vehicle>
    <vehicle id="263" depart="1446.50">
        <route edges="-E27 E23 E20 E21"/>
    </vehicle>
    <vehicle id="264" depart="1452.00">
        <route edges="E14 E15 E16 E17 E25"/>
    </vehicle>
    <vehicle id="265" depart="1457.50">
        <route edges="-E21 E15 E16 E17 E25"/>
    </vehicle>
    <vehicle id="266" depart="1463.00">
        <route edges="E14 E15 E16 E17 E22 -E26"/>
    </vehicle>
    <vehicle id="267" depart="1468.50">
        <route edges="E26 E27"/>
    </vehicle>
    <vehicle id="268" depart="1474.00">
        <route edges="-E21 E15 E16 E17 E22 -E26"/>
    </vehicle>
    <vehicle id="269" depart="1479.50">
        <route edges="-E25 E18 E19 E20 E15 E16 E17 E25"/>
    </vehicle>
    <vehicle id="270" depart="1485.00">
        <route edges="E26 E23 E20 E21"/>
    </vehicle>
    <vehicle id="271" depart="1490.50">
        <route edges="E14 E15 E16 E17 E22 -E26"/>
    </vehicle>
    <vehicle id="272" depart="1496.00">
        <route edges="E14 E15 E16 E17 E25"/>
    </vehicle>
    <vehicle id="273" depart="1501.50">
        <route edges="-E21 E15 E16 E17 E25"/>
    </vehicle>
    <vehicle id="274" depart="1507.00">
        <route edges="E26 E23 E24"/>
    </vehicle>
    <vehicle id="275" depart="1512.50">
        <route edges="-E21 E15 E16 E17 E22 E27"/>
    </vehicle>
    <vehicle id="276" depart="1518.00">
        <route edges="E14 E21"/>
    </vehicle>
    <vehicle id="277" depart="1523.50">
        <route edges="-E27 E23 E20 E21"/>
    </vehicle>
    <vehicle id="278" depart="1529.00">
        <route edges="-E27 E23 E20 E21"/>
    </vehicle>
    <vehicle id="279" depart="1534.50">
        <route edges="E26 E27"/>
    </vehicle>
    <vehicle id="280" depart="1540.00">
        <route edges="-E21 E15 E16 E17 E22 E27"/>
    </vehicle>
    <vehicle id="281" depart="1545.50">
        <route edges="E14 E15 E16 E17 E22 E27"/>
    </vehicle>
    <vehicle id="282" depart="1551.00">
        <route edges="E14 -E20 E24"/>
    </vehicle>
    <vehicle id="283" depart="1556.50">
        <route edges="E14 E15 E16 E17 E22 E27"/>
    </vehicle>
    <vehicle id="284" depart="1562.00">
        <route edges="-E25 E22 E27"/>
    </vehicle>
    <vehicle id="285" depart="1567.50">
        <route edges="-E27 E23 E24"/>
    </vehicle>
    <vehicle id="286" depart="1573.00">
        <route edges="-E27 E23 E20 E15 E16 E17 E25"/>
    </vehicle>
    <vehicle id="287" depart="1578.50">
        <route edges="-E25 E22 E27"/>
    </vehicle>
    <vehicle id="288" depart="1584.00">
        <route edges="E26 E23 E20 E15 E16 E17 E22 -E26"/>
    </vehicle>
    <vehicle id="289" depart="1589.50">
        <route edges="E26 E23 E20 E21"/>
    </vehicle>
    <vehicle id="290" depart="1595.00">
        <route edges="-E27 E23 E20 E15 E16 E17 E25"/>
    </vehicle>
    <vehicle id="291" depart="1600.50">
        <route edges="-E25 E22 -E26"/>
    </vehicle>