<?xml version="1.0" encoding="UTF-8"?>
<routes xmlns:xsi="http://www.w3.org/2001/XMLSchema-instance" xsi:noNamespaceSchemaLocation="http://sumo.dlr.de/xsd/routes_file.xsd">

    <!-- Vehicle Types -->
    <vType id="car" accel="2.6" decel="4.5" sigma="0.5" length="4.5" maxSpeed="50" guiShape="passenger"/>
    <vType id="motorcycle" accel="4.0" decel="6.0" sigma="0.5" length="2.0" maxSpeed="60" guiShape="motorcycle"/>
    <vType id="bus" accel="1.2" decel="3.0" sigma="0.5" length="12.0" maxSpeed="30" guiShape="bus"/>
    <vType id="truck" accel="1.0" decel="3.0" sigma="0.5" length="10.0" maxSpeed="25" guiShape="truck"/>
    <vType id="emergency" accel="3.0" decel="5.0" sigma="0.3" length="5.5" maxSpeed="60" guiShape="emergency" vClass="emergency" color="1,0,0"/>

    <!-- Vehicle Trips (3939 total) -->
    <trip id="v_s_828" type="motorcycle" depart="0.4" from="-1424147361" to="464465162#1" departLane="best" departSpeed="max"/>
    <trip id="v_e_2364" type="truck" depart="1.0" from="27994464#0" to="-27994446#0" departLane="best" departSpeed="max"/>
    <trip id="v_s_829" type="bus" depart="1.7" from="-1424147361" to="464465162#1" departLane="best" departSpeed="max"/>
    <trip id="v_e_2365" type="motorcycle" depart="2.1" from="27994464#0" to="-27994446#0" departLane="best" departSpeed="max"/>
    <trip id="v_w_3152" type="car" depart="2.2" from="-40696199#1" to="688608667" departLane="best" departSpeed="max"/>
    <trip id="v_s_830" type="car" depart="4.5" from="-1424147361" to="464465162#1" departLane="best" departSpeed="max"/>
    <trip id="v_n_1" type="car" depart="4.6" from="491889865#0" to="519734960" departLane="best" departSpeed="max"/>
    <trip id="v_n_2" type="bus" depart="4.7" from="491889865#0" to="519734960" departLane="best" departSpeed="max"/>
    <trip id="v_w_3153" type="motorcycle" depart="5.2" from="-40696199#1" to="464465162#1" departLane="best" departSpeed="max"/>
    <trip id="v_n_3" type="car" depart="6.1" from="491889865#0" to="519734960" departLane="best" departSpeed="max"/>
    <trip id="v_n_4" type="motorcycle" depart="7.3" from="491889865#0" to="519734960" departLane="best" departSpeed="max"/>
    <trip id="v_s_831" type="truck" depart="9.3" from="-1424147361" to="464465162#1" departLane="best" departSpeed="max"/>
    <trip id="v_s_832" type="motorcycle" depart="9.5" from="-1424147361" to="464465162#1" departLane="best" departSpeed="max"/>
    <trip id="v_s_833" type="truck" depart="9.7" from="-1424147361" to="464465162#1" departLane="best" departSpeed="max"/>
    <trip id="v_w_3154" type="car" depart="10.3" from="-40696199#1" to="688608667" departLane="best" departSpeed="max"/>
    <trip id="v_s_834" type="car" depart="13.1" from="-1424147361" to="464465162#1" departLane="best" departSpeed="max"/>
    <trip id="v_n_5" type="car" depart="13.3" from="491889865#0" to="-27994446#0" departLane="best" departSpeed="max"/>
    <trip id="v_e_2366" type="car" depart="13.4" from="27994464#0" to="-27994446#0" departLane="best" departSpeed="max"/>
    <trip id="v_w_3155" type="truck" depart="14.4" from="-40696199#1" to="-27994446#0" departLane="best" departSpeed="max"/>
    <trip id="v_s_835" type="car" depart="15.3" from="-1424147361" to="519734960" departLane="best" departSpeed="max"/>
    <trip id="v_s_836" type="car" depart="16.4" from="-1424147361" to="464465162#1" departLane="best" departSpeed="max"/>
    <trip id="v_n_6" type="motorcycle" depart="18.4" from="491889865#0" to="519734960" departLane="best" departSpeed="max"/>
    <trip id="v_e_2367" type="car" depart="20.6" from="27994464#0" to="-27994446#0" departLane="best" departSpeed="max"/>
    <trip id="v_e_2368" type="motorcycle" depart="22.6" from="27994464#0" to="-27994446#0" departLane="best" departSpeed="max"/>
    <trip id="v_s_837" type="car" depart="24.4" from="-1424147361" to="464465162#1" departLane="best" departSpeed="max"/>
    <trip id="v_s_838" type="motorcycle" depart="25.4" from="-1424147361" to="464465162#1" departLane="best" departSpeed="max"/>
    <trip id="v_s_839" type="car" depart="25.7" from="-1424147361" to="464465162#1" departLane="best" departSpeed="max"/>
    <trip id="v_s_840" type="motorcycle" depart="26.5" from="-1424147361" to="464465162#1" departLane="best" departSpeed="max"/>
    <trip id="v_s_841" type="car" depart="26.7" from="-1424147361" to="464465162#1" departLane="best" departSpeed="max"/>
    <trip id="v_w_3156" type="car" depart="26.8" from="-40696199#1" to="688608667" departLane="best" departSpeed="max"/>
    <trip id="v_e_2369" type="car" depart="27.8" from="27994464#0" to="-27994446#0" departLane="best" departSpeed="max"/>
    <trip id="v_n_7" type="car" depart="28.4" from="491889865#0" to="519734960" departLane="best" departSpeed="max"/>
    <trip id="v_s_842" type="motorcycle" depart="28.7" from="-1424147361" to="464465162#1" departLane="best" departSpeed="max"/>
    <trip id="v_n_8" type="car" depart="28.8" from="491889865#0" to="519734960" departLane="best" departSpeed="max"/>
    <trip id="v_s_843" type="car" depart="30.9" from="-1424147361" to="-27994446#0" departLane="best" departSpeed="max"/>
    <trip id="v_n_9" type="car" depart="31.3" from="491889865#0" to="519734960" departLane="best" departSpeed="max"/>
    <trip id="v_n_10" type="truck" depart="31.4" from="491889865#0" to="519734960" departLane="best" departSpeed="max"/>
    <trip id="v_n_11" type="bus" depart="32.5" from="491889865#0" to="519734960" departLane="best" departSpeed="max"/>
    <trip id="v_s_844" type="car" depart="33.2" from="-1424147361" to="464465162#1" departLane="best" departSpeed="max"/>
    <trip id="v_e_2370" type="car" depart="33.4" from="27994464#0" to="688608667" departLane="best" departSpeed="max"/>
    <trip id="v_w_3157" type="car" depart="33.8" from="-40696199#1" to="688608667" departLane="best" departSpeed="max"/>
    <trip id="v_n_12" type="car" depart="35.7" from="491889865#0" to="519734960" departLane="best" departSpeed="max"/>
    <trip id="v_n_13" type="car" depart="35.8" from="491889865#0" to="519734960" departLane="best" departSpeed="max"/>
    <trip id="v_n_14" type="car" depart="36.8" from="491889865#0" to="519734960" departLane="best" departSpeed="max"/>
    <trip id="v_s_845" type="car" depart="36.8" from="-1424147361" to="464465162#1" departLane="best" departSpeed="max"/>
    <trip id="v_w_3158" type="car" depart="37.3" from="-40696199#1" to="688608667" departLane="best" departSpeed="max"/>
    <trip id="v_w_3159" type="car" depart="38.0" from="-40696199#1" to="688608667" departLane="best" departSpeed="max"/>
    <trip id="v_s_846" type="car" depart="39.7" from="-1424147361" to="464465162#1" departLane="best" departSpeed="max"/>
    <trip id="v_w_3160" type="car" depart="39.8" from="-40696199#1" to="688608667" departLane="best" departSpeed="max"/>
    <trip id="v_n_15" type="car" depart="41.5" from="491889865#0" to="519734960" departLane="best" departSpeed="max"/>
    <trip id="v_s_847" type="car" depart="44.2" from="-1424147361" to="688608667" departLane="best" departSpeed="max"/>
    <trip id="v_n_16" type="motorcycle" depart="45.0" from="491889865#0" to="519734960" departLane="best" departSpeed="max"/>
    <trip id="v_n_17" type="car" depart="46.2" from="491889865#0" to="-27994446#0" departLane="best" departSpeed="max"/>
    <trip id="v_s_848" type="car" depart="46.8" from="-1424147361" to="464465162#1" departLane="best" departSpeed="max"/>
    <trip id="v_s_849" type="car" depart="47.7" from="-1424147361" to="464465162#1" departLane="best" departSpeed="max"/>
    <trip id="v_s_850" type="motorcycle" depart="49.5" from="-1424147361" to="464465162#1" departLane="best" departSpeed="max"/>
    <trip id="v_n_18" type="truck" depart="50.2" from="491889865#0" to="464465162#1" departLane="best" departSpeed="max"/>
    <trip id="v_s_851" type="motorcycle" depart="51.2" from="-1424147361" to="519734960" departLane="best" departSpeed="max"/>
    <trip id="v_e_2371" type="car" depart="52.4" from="27994464#0" to="688608667" departLane="best" departSpeed="max"/>
    <trip id="v_s_852" type="car" depart="54.5" from="-1424147361" to="464465162#1" departLane="best" departSpeed="max"/>
    <trip id="v_w_3161" type="car" depart="54.5" from="-40696199#1" to="688608667" departLane="best" departSpeed="max"/>
    <trip id="v_s_853" type="car" depart="55.4" from="-1424147361" to="464465162#1" departLane="best" departSpeed="max"/>
    <trip id="v_s_854" type="car" depart="55.5" from="-1424147361" to="-27994446#0" departLane="best" departSpeed="max"/>
    <trip id="v_w_3162" type="car" depart="56.5" from="-40696199#1" to="688608667" departLane="best" departSpeed="max"/>
    <trip id="v_e_2372" type="bus" depart="56.7" from="27994464#0" to="688608667" departLane="best" departSpeed="max"/>
    <trip id="v_n_19" type="car" depart="57.6" from="491889865#0" to="519734960" departLane="best" departSpeed="max"/>
    <trip id="v_n_20" type="car" depart="57.7" from="491889865#0" to="519734960" departLane="best" departSpeed="max"/>
    <trip id="v_e_2373" type="car" depart="58.6" from="27994464#0" to="-27994446#0" departLane="best" departSpeed="max"/>
    <trip id="v_s_855" type="car" depart="61.0" from="-1424147361" to="464465162#1" departLane="best" departSpeed="max"/>
    <trip id="v_w_3163" type="bus" depart="61.0" from="-40696199#1" to="688608667" departLane="best" departSpeed="max"/>
    <trip id="v_e_2374" type="car" depart="62.7" from="27994464#0" to="-27994446#0" departLane="best" departSpeed="max"/>
    <trip id="v_w_3164" type="car" depart="63.5" from="-40696199#1" to="688608667" departLane="best" departSpeed="max"/>
    <trip id="v_w_3165" type="car" depart="63.7" from="-40696199#1" to="688608667" departLane="best" departSpeed="max"/>
    <trip id="v_n_21" type="car" depart="65.0" from="491889865#0" to="519734960" departLane="best" departSpeed="max"/>
    <trip id="v_s_856" type="bus" depart="68.5" from="-1424147361" to="464465162#1" departLane="best" departSpeed="max"/>
    <trip id="v_s_857" type="car" depart="70.2" from="-1424147361" to="464465162#1" departLane="best" departSpeed="max"/>
    <trip id="v_n_22" type="car" depart="70.4" from="491889865#0" to="-27994446#0" departLane="best" departSpeed="max"/>
    <trip id="v_s_858" type="car" depart="70.5" from="-1424147361" to="464465162#1" departLane="best" departSpeed="max"/>
    <trip id="v_s_859" type="car" depart="72.1" from="-1424147361" to="464465162#1" departLane="best" departSpeed="max"/>
    <trip id="v_n_23" type="car" depart="72.3" from="491889865#0" to="519734960" departLane="best" departSpeed="max"/>
    <trip id="v_w_3166" type="car" depart="72.7" from="-40696199#1" to="688608667" departLane="best" departSpeed="max"/>
    <trip id="v_n_24" type="truck" depart="73.0" from="491889865#0" to="-27994446#0" departLane="best" departSpeed="max"/>
    <trip id="v_w_3167" type="car" depart="73.5" from="-40696199#1" to="-27994446#0" departLane="best" departSpeed="max"/>
    <trip id="v_w_3168" type="car" depart="74.0" from="-40696199#1" to="-27994446#0" departLane="best" departSpeed="max"/>
    <trip id="v_s_860" type="motorcycle" depart="74.3" from="-1424147361" to="688608667" departLane="best" departSpeed="max"/>
    <trip id="v_w_3169" type="car" depart="74.6" from="-40696199#1" to="688608667" departLane="best" departSpeed="max"/>
    <trip id="v_s_861" type="motorcycle" depart="76.1" from="-1424147361" to="464465162#1" departLane="best" departSpeed="max"/>
    <trip id="v_e_2375" type="car" depart="78.2" from="27994464#0" to="-27994446#0" departLane="best" departSpeed="max"/>
    <trip id="v_e_2376" type="car" depart="82.7" from="27994464#0" to="-27994446#0" departLane="best" departSpeed="max"/>
    <trip id="v_s_862" type="car" depart="85.3" from="-1424147361" to="464465162#1" departLane="best" departSpeed="max"/>
    <trip id="v_e_2377" type="car" depart="85.3" from="27994464#0" to="-27994446#0" departLane="best" departSpeed="max"/>
    <trip id="v_e_2378" type="car" depart="86.1" from="27994464#0" to="-27994446#0" departLane="best" departSpeed="max"/>
    <trip id="v_n_25" type="car" depart="87.2" from="491889865#0" to="519734960" departLane="best" departSpeed="max"/>
    <trip id="v_w_3170" type="car" depart="87.4" from="-40696199#1" to="688608667" departLane="best" departSpeed="max"/>
    <trip id="v_e_2379" type="car" depart="89.0" from="27994464#0" to="-27994446#0" departLane="best" departSpeed="max"/>
    <trip id="v_n_26" type="car" depart="89.1" from="491889865#0" to="519734960" departLane="best" departSpeed="max"/>
    <trip id="v_n_27" type="car" depart="89.5" from="491889865#0" to="519734960" departLane="best" departSpeed="max"/>
    <trip id="v_n_28" type="car" depart="90.0" from="491889865#0" to="-27994446#0" departLane="best" departSpeed="max"/>
    <trip id="v_w_3171" type="car" depart="90.5" from="-40696199#1" to="688608667" departLane="best" departSpeed="max"/>
    <trip id="v_s_863" type="car" depart="95.8" from="-1424147361" to="464465162#1" departLane="best" departSpeed="max"/>
    <trip id="v_e_2380" type="bus" depart="96.4" from="27994464#0" to="-27994446#0" departLane="best" departSpeed="max"/>
    <trip id="v_e_2381" type="truck" depart="96.6" from="27994464#0" to="-27994446#0" departLane="best" departSpeed="max"/>
    <trip id="v_w_3172" type="car" depart="97.2" from="-40696199#1" to="688608667" departLane="best" departSpeed="max"/>
    <trip id="v_e_2382" type="car" depart="97.7" from="27994464#0" to="464465162#1" departLane="best" departSpeed="max"/>
    <trip id="v_e_2383" type="truck" depart="97.7" from="27994464#0" to="519734960" departLane="best" departSpeed="max"/>
    <trip id="v_n_29" type="truck" depart="98.4" from="491889865#0" to="519734960" departLane="best" departSpeed="max"/>
    <trip id="v_e_2384" type="car" depart="98.9" from="27994464#0" to="-27994446#0" departLane="best" departSpeed="max"/>
    <trip id="v_e_2385" type="car" depart="100.2" from="27994464#0" to="-27994446#0" departLane="best" departSpeed="max"/>
    <trip id="v_s_864" type="car" depart="102.4" from="-1424147361" to="464465162#1" departLane="best" departSpeed="max"/>
    <trip id="v_n_30" type="truck" depart="102.6" from="491889865#0" to="519734960" departLane="best" departSpeed="max"/>
    <trip id="v_s_865" type="car" depart="102.8" from="-1424147361" to="464465162#1" departLane="best" departSpeed="max"/>
    <trip id="v_e_2386" type="car" depart="104.8" from="27994464#0" to="-27994446#0" departLane="best" departSpeed="max"/>
    <trip id="v_e_2387" type="car" depart="106.1" from="27994464#0" to="464465162#1" departLane="best" departSpeed="max"/>
    <trip id="v_s_866" type="car" depart="107.5" from="-1424147361" to="519734960" departLane="best" departSpeed="max"/>
    <trip id="v_s_867" type="car" depart="109.6" from="-1424147361" to="-27994446#0" departLane="best" departSpeed="max"/>
    <trip id="v_n_31" type="car" depart="110.0" from="491889865#0" to="519734960" departLane="best" departSpeed="max"/>
    <trip id="v_s_868" type="car" depart="110.7" from="-1424147361" to="464465162#1" departLane="best" departSpeed="max"/>
    <trip id="v_e_2388" type="car" depart="112.3" from="27994464#0" to="-27994446#0" departLane="best" departSpeed="max"/>
    <trip id="v_s_869" type="car" depart="113.5" from="-1424147361" to="464465162#1" departLane="best" departSpeed="max"/>
    <trip id="v_n_32" type="truck" depart="115.9" from="491889865#0" to="519734960" departLane="best" departSpeed="max"/>
    <trip id="v_w_3173" type="motorcycle" depart="116.0" from="-40696199#1" to="688608667" departLane="best" departSpeed="max"/>
    <trip id="v_s_870" type="car" depart="116.9" from="-1424147361" to="464465162#1" departLane="best" departSpeed="max"/>
    <trip id="v_n_33" type="car" depart="119.3" from="491889865#0" to="519734960" departLane="best" departSpeed="max"/>
    <trip id="v_w_3174" type="car" depart="123.8" from="-40696199#1" to="688608667" departLane="best" departSpeed="max"/>
    <trip id="v_s_871" type="car" depart="124.4" from="-1424147361" to="464465162#1" departLane="best" departSpeed="max"/>
    <trip id="v_e_2389" type="truck" depart="126.7" from="27994464#0" to="-27994446#0" departLane="best" departSpeed="max"/>
    <trip id="v_s_872" type="car" depart="128.0" from="-1424147361" to="464465162#1" departLane="best" departSpeed="max"/>
    <trip id="v_s_873" type="car" depart="128.0" from="-1424147361" to="464465162#1" departLane="best" departSpeed="max"/>
    <trip id="v_s_874" type="car" depart="128.2" from="-1424147361" to="519734960" departLane="best" departSpeed="max"/>
    <trip id="v_e_2390" type="car" depart="128.6" from="27994464#0" to="-27994446#0" departLane="best" departSpeed="max"/>
    <trip id="v_s_875" type="truck" depart="128.9" from="-1424147361" to="464465162#1" departLane="best" departSpeed="max"/>
    <trip id="v_s_876" type="motorcycle" depart="129.0" from="-1424147361" to="464465162#1" departLane="best" departSpeed="max"/>
    <trip id="v_s_877" type="motorcycle" depart="129.2" from="-1424147361" to="464465162#1" departLane="best" departSpeed="max"/>
    <trip id="v_w_3175" type="car" depart="130.0" from="-40696199#1" to="688608667" departLane="best" departSpeed="max"/>
    <trip id="v_w_3176" type="truck" depart="131.3" from="-40696199#1" to="-27994446#0" departLane="best" departSpeed="max"/>
    <trip id="v_s_878" type="bus" depart="133.0" from="-1424147361" to="688608667" departLane="best" departSpeed="max"/>
    <trip id="v_s_879" type="car" depart="134.7" from="-1424147361" to="464465162#1" departLane="best" departSpeed="max"/>
    <trip id="v_e_2391" type="motorcycle" depart="135.0" from="27994464#0" to="-27994446#0" departLane="best" departSpeed="max"/>
    <trip id="v_n_34" type="car" depart="135.6" from="491889865#0" to="519734960" departLane="best" departSpeed="max"/>
    <trip id="v_e_2392" type="motorcycle" depart="136.1" from="27994464#0" to="-27994446#0" departLane="best" departSpeed="max"/>
    <trip id="v_e_2393" type="car" depart="137.0" from="27994464#0" to="-27994446#0" departLane="best" departSpeed="max"/>
    <trip id="v_s_880" type="car" depart="137.1" from="-1424147361" to="464465162#1" departLane="best" departSpeed="max"/>
    <trip id="v_n_35" type="car" depart="137.7" from="491889865#0" to="688608667" departLane="best" departSpeed="max"/>
    <trip id="v_n_36" type="car" depart="137.7" from="491889865#0" to="688608667" departLane="best" departSpeed="max"/>
    <trip id="v_s_881" type="truck" depart="138.8" from="-1424147361" to="464465162#1" departLane="best" departSpeed="max"/>
    <trip id="v_s_882" type="car" depart="140.1" from="-1424147361" to="464465162#1" departLane="best" departSpeed="max"/>
    <trip id="v_n_37" type="motorcycle" depart="141.4" from="491889865#0" to="519734960" departLane="best" departSpeed="max"/>
    <trip id="v_w_3177" type="car" depart="142.1" from="-40696199#1" to="519734960" departLane="best" departSpeed="max"/>
    <trip id="v_s_883" type="motorcycle" depart="143.0" from="-1424147361" to="464465162#1" departLane="best" departSpeed="max"/>
    <trip id="v_w_3178" type="car" depart="143.1" from="-40696199#1" to="688608667" departLane="best" departSpeed="max"/>
    <trip id="v_s_884" type="car" depart="143.2" from="-1424147361" to="464465162#1" departLane="best" departSpeed="max"/>
    <trip id="v_s_885" type="car" depart="145.1" from="-1424147361" to="464465162#1" departLane="best" departSpeed="max"/>
    <trip id="v_s_886" type="car" depart="147.4" from="-1424147361" to="464465162#1" departLane="best" departSpeed="max"/>
    <trip id="v_s_887" type="car" depart="148.2" from="-1424147361" to="464465162#1" departLane="best" departSpeed="max"/>
    <trip id="v_s_888" type="car" depart="149.1" from="-1424147361" to="464465162#1" departLane="best" departSpeed="max"/>
    <trip id="v_n_38" type="truck" depart="149.3" from="491889865#0" to="519734960" departLane="best" departSpeed="max"/>
    <trip id="v_s_889" type="car" depart="150.8" from="-1424147361" to="464465162#1" departLane="best" departSpeed="max"/>
    <trip id="v_s_890" type="truck" depart="151.3" from="-1424147361" to="464465162#1" departLane="best" departSpeed="max"/>
    <trip id="v_n_39" type="motorcycle" depart="153.6" from="491889865#0" to="519734960" departLane="best" departSpeed="max"/>
    <trip id="v_w_3179" type="car" depart="153.6" from="-40696199#1" to="688608667" departLane="best" departSpeed="max"/>
    <trip id="v_s_891" type="car" depart="155.3" from="-1424147361" to="688608667" departLane="best" departSpeed="max"/>
    <trip id="v_s_892" type="truck" depart="157.2" from="-1424147361" to="688608667" departLane="best" departSpeed="max"/>
    <trip id="v_s_893" type="car" depart="158.4" from="-1424147361" to="464465162#1" departLane="best" departSpeed="max"/>
    <trip id="v_e_2394" type="car" depart="158.7" from="27994464#0" to="-27994446#0" departLane="best" departSpeed="max"/>
    <trip id="v_w_3180" type="car" depart="160.2" from="-40696199#1" to="688608667" departLane="best" departSpeed="max"/>
    <trip id="v_s_894" type="truck" depart="160.8" from="-1424147361" to="464465162#1" departLane="best" departSpeed="max"/>
    <trip id="v_e_2395" type="car" depart="160.9" from="27994464#0" to="464465162#1" departLane="best" departSpeed="max"/>
    <trip id="v_e_2396" type="car" depart="161.2" from="27994464#0" to="-27994446#0" departLane="best" departSpeed="max"/>
    <trip id="v_e_2397" type="car" depart="161.4" from="27994464#0" to="-27994446#0" departLane="best" departSpeed="max"/>
    <trip id="v_e_2398" type="truck" depart="161.9" from="27994464#0" to="-27994446#0" departLane="best" departSpeed="max"/>
    <trip id="v_n_40" type="motorcycle" depart="162.4" from="491889865#0" to="519734960" departLane="best" departSpeed="max"/>
    <trip id="v_n_41" type="motorcycle" depart="162.5" from="491889865#0" to="519734960" departLane="best" departSpeed="max"/>
    <trip id="v_w_3181" type="car" depart="162.8" from="-40696199#1" to="688608667" departLane="best" departSpeed="max"/>
    <trip id="v_w_3182" type="car" depart="163.1" from="-40696199#1" to="688608667" departLane="best" departSpeed="max"/>
    <trip id="v_e_2399" type="car" depart="163.6" from="27994464#0" to="688608667" departLane="best" departSpeed="max"/>
    <trip id="v_e_2400" type="car" depart="164.6" from="27994464#0" to="-27994446#0" departLane="best" departSpeed="max"/>
    <trip id="v_s_895" type="car" depart="165.2" from="-1424147361" to="464465162#1" departLane="best" departSpeed="max"/>
    <trip id="v_n_42" type="car" depart="166.4" from="491889865#0" to="519734960" departLane="best" departSpeed="max"/>
    <trip id="v_w_3183" type="car" depart="167.6" from="-40696199#1" to="688608667" departLane="best" departSpeed="max"/>
    <trip id="v_s_896" type="motorcycle" depart="168.0" from="-1424147361" to="464465162#1" departLane="best" departSpeed="max"/>
    <trip id="v_s_897" type="car" depart="168.1" from="-1424147361" to="464465162#1" departLane="best" departSpeed="max"/>
    <trip id="v_w_3184" type="car" depart="168.2" from="-40696199#1" to="688608667" departLane="best" departSpeed="max"/>
    <trip id="v_e_2401" type="car" depart="168.7" from="27994464#0" to="-27994446#0" departLane="best" departSpeed="max"/>
    <trip id="v_s_898" type="car" depart="171.0" from="-1424147361" to="464465162#1" departLane="best" departSpeed="max"/>
    <trip id="v_n_43" type="motorcycle" depart="171.9" from="491889865#0" to="519734960" departLane="best" departSpeed="max"/>
    <trip id="v_n_44" type="car" depart="172.1" from="491889865#0" to="464465162#1" departLane="best" departSpeed="max"/>
    <trip id="v_n_45" type="truck" depart="173.3" from="491889865#0" to="519734960" departLane="best" departSpeed="max"/>
    <trip id="v_s_899" type="bus" depart="174.2" from="-1424147361" to="464465162#1" departLane="best" departSpeed="max"/>
    <trip id="v_n_46" type="car" depart="174.8" from="491889865#0" to="519734960" departLane="best" departSpeed="max"/>
    <trip id="v_n_47" type="car" depart="175.2" from="491889865#0" to="519734960" departLane="best" departSpeed="max"/>
    <trip id="v_e_2402" type="car" depart="175.6" from="27994464#0" to="519734960" departLane="best" departSpeed="max"/>
    <trip id="v_e_2403" type="motorcycle" depart="175.8" from="27994464#0" to="-27994446#0" departLane="best" departSpeed="max"/>
    <trip id="v_e_2404" type="car" depart="175.9" from="27994464#0" to="-27994446#0" departLane="best" departSpeed="max"/>
    <trip id="v_n_48" type="car" depart="176.4" from="491889865#0" to="519734960" departLane="best" departSpeed="max"/>
    <trip id="v_n_49" type="motorcycle" depart="176.9" from="491889865#0" to="464465162#1" departLane="best" departSpeed="max"/>
    <trip id="v_e_2405" type="motorcycle" depart="177.0" from="27994464#0" to="-27994446#0" departLane="best" departSpeed="max"/>
    <trip id="v_w_3185" type="car" depart="177.0" from="-40696199#1" to="688608667" departLane="best" departSpeed="max"/>
    <trip id="v_w_3186" type="bus" depart="177.4" from="-40696199#1" to="688608667" departLane="best" departSpeed="max"/>
    <trip id="v_e_2406" type="motorcycle" depart="177.9" from="27994464#0" to="-27994446#0" departLane="best" departSpeed="max"/>
    <trip id="v_n_50" type="motorcycle" depart="178.3" from="491889865#0" to="519734960" departLane="best" departSpeed="max"/>
    <trip id="v_s_900" type="truck" depart="178.7" from="-1424147361" to="464465162#1" departLane="best" departSpeed="max"/>
    <trip id="v_s_901" type="car" depart="178.9" from="-1424147361" to="464465162#1" departLane="best" departSpeed="max"/>
    <trip id="v_s_902" type="truck" depart="179.1" from="-1424147361" to="-27994446#0" departLane="best" departSpeed="max"/>
    <trip id="v_s_903" type="car" depart="180.5" from="-1424147361" to="464465162#1" departLane="best" departSpeed="max"/>
    <trip id="v_s_904" type="car" depart="181.9" from="-1424147361" to="464465162#1" departLane="best" departSpeed="max"/>
    <trip id="v_n_51" type="car" depart="182.9" from="491889865#0" to="519734960" departLane="best" departSpeed="max"/>
    <trip id="v_s_905" type="car" depart="184.2" from="-1424147361" to="464465162#1" departLane="best" departSpeed="max"/>
    <trip id="v_w_3187" type="truck" depart="184.2" from="-40696199#1" to="688608667" departLane="best" departSpeed="max"/>
    <trip id="v_n_52" type="car" depart="184.9" from="491889865#0" to="-27994446#0" departLane="best" departSpeed="max"/>
    <trip id="v_s_906" type="car" depart="185.1" from="-1424147361" to="464465162#1" departLane="best" departSpeed="max"/>
    <trip id="v_n_53" type="truck" depart="187.0" from="491889865#0" to="519734960" departLane="best" departSpeed="max"/>
    <trip id="v_n_54" type="bus" depart="188.0" from="491889865#0" to="519734960" departLane="best" departSpeed="max"/>
    <trip id="v_e_2407" type="car" depart="188.1" from="27994464#0" to="688608667" departLane="best" departSpeed="max"/>
    <trip id="v_s_907" type="car" depart="188.4" from="-1424147361" to="464465162#1" departLane="best" departSpeed="max"/>
    <trip id="v_w_3188" type="motorcycle" depart="188.6" from="-40696199#1" to="688608667" departLane="best" departSpeed="max"/>
    <trip id="v_n_55" type="car" depart="189.4" from="491889865#0" to="464465162#1" departLane="best" departSpeed="max"/>
    <trip id="v_s_908" type="truck" depart="191.7" from="-1424147361" to="464465162#1" departLane="best" departSpeed="max"/>
    <trip id="v_s_909" type="car" depart="192.0" from="-1424147361" to="688608667" departLane="best" departSpeed="max"/>
    <trip id="v_e_2408" type="car" depart="194.1" from="27994464#0" to="-27994446#0" departLane="best" departSpeed="max"/>
    <trip id="v_s_910" type="car" depart="195.0" from="-1424147361" to="464465162#1" departLane="best" departSpeed="max"/>
    <trip id="v_e_2409" type="car" depart="195.5" from="27994464#0" to="-27994446#0" departLane="best" departSpeed="max"/>
    <trip id="v_e_2410" type="car" depart="196.1" from="27994464#0" to="-27994446#0" departLane="best" departSpeed="max"/>
    <trip id="v_w_3189" type="motorcycle" depart="197.3" from="-40696199#1" to="688608667" departLane="best" departSpeed="max"/>
    <trip id="v_s_911" type="motorcycle" depart="197.9" from="-1424147361" to="464465162#1" departLane="best" departSpeed="max"/>
    <trip id="v_s_912" type="car" depart="198.3" from="-1424147361" to="464465162#1" departLane="best" departSpeed="max"/>
    <trip id="v_e_2411" type="car" depart="199.9" from="27994464#0" to="-27994446#0" departLane="best" departSpeed="max"/>
    <trip id="v_e_2412" type="car" depart="200.8" from="27994464#0" to="464465162#1" departLane="best" departSpeed="max"/>
    <trip id="v_e_2413" type="motorcycle" depart="200.9" from="27994464#0" to="519734960" departLane="best" departSpeed="max"/>
    <trip id="v_n_56" type="bus" depart="201.8" from="491889865#0" to="519734960" departLane="best" departSpeed="max"/>
    <trip id="v_s_913" type="car" depart="205.7" from="-1424147361" to="464465162#1" departLane="best" departSpeed="max"/>
    <trip id="v_n_57" type="truck" depart="206.5" from="491889865#0" to="519734960" departLane="best" departSpeed="max"/>
    <trip id="v_s_914" type="car" depart="207.5" from="-1424147361" to="-27994446#0" departLane="best" departSpeed="max"/>
    <trip id="v_w_3190" type="car" depart="209.4" from="-40696199#1" to="688608667" departLane="best" departSpeed="max"/>
    <trip id="v_e_2414" type="car" depart="209.6" from="27994464#0" to="-27994446#0" departLane="best" departSpeed="max"/>
    <trip id="v_n_58" type="motorcycle" depart="210.8" from="491889865#0" to="519734960" departLane="best" departSpeed="max"/>
    <trip id="v_s_915" type="car" depart="211.2" from="-1424147361" to="464465162#1" departLane="best" departSpeed="max"/>
    <trip id="v_w_3191" type="car" depart="211.2" from="-40696199#1" to="688608667" departLane="best" departSpeed="max"/>