<?xml version="1.0" encoding="UTF-8"?>

<!-- generated on 2026-01-08 15:27:34.410432 by randomTrips.py v1_18_0+0000-03ecfdea036
<configuration>
    <net-file value="C:\Users\91948\OneDrive\Desktop\Reinforcement_Signal_Optimizer\backend\app\sumo\network\silk_board.net.xml"/>
    <route-file value="C:\Users\91948\OneDrive\Desktop\Reinforcement_Signal_Optimizer\backend\app\sumo\network\routes_silk_board.rou.xml"/>
    <trip-attributes value="departLane=&quot;best&quot; departSpeed=&quot;max&quot;"/>
    <fringe-factor value="10"/>
    <min-distance value="50.0"/>
    <validate value="True"/>
    <period value="7.0"/>
</configuration>
-->

<!-- generated on 2026-01-08 15:27:34 by Eclipse SUMO duarouter Version 1.18.0
<configuration xmlns:xsi="http://www.w3.org/2001/XMLSchema-instance" xsi:noNamespaceSchemaLocation="http://sumo.dlr.de/xsd/duarouterConfiguration.xsd">

    <input>
        <net-file value="C:\Users\91948\OneDrive\Desktop\Reinforcement_Signal_Optimizer\backend\app\sumo\network\silk_board.net.xml"/>
        <route-files value="trips.trips.xml"/>
    </input>

    <output>
        <output-file value="C:\Users\91948\OneDrive\Desktop\Reinforcement_Signal_Optimizer\backend\app\sumo\network\routes_silk_board.rou.xml"/>
        <alternatives-output value="NUL"/>
    </output>

    <time>
        <begin value="0.0"/>
        <end value="3600.0"/>
    </time>

    <report>
        <no-warnings value="true"/>
        <ignore-errors value="true"/>
        <no-step-log value="true"/>
    </report>

</configuration>
-->

<routes xmlns:xsi="http://www.w3.org/2001/XMLSchema-instance" xsi:noNamespaceSchemaLocation="http://sumo.dlr.de/xsd/routes_file.xsd">
    <vehicle id="0" depart="0.00" departLane="best" departSpeed="max">
        <route edges="27994446#0 27994446#1 27994446#2 27994446#3 27994446#4 27994428#1 1185209421#0 1185209421#2 -40696199#0 -1185209422#2 -1185209422#1"/>
    </vehicle>
    <vehicle id="1" depart="7.00" departLane="best" departSpeed="max">
        <route edges="-40696197 27994464#1 27994464#2 27994464#3 1185209421#0 1185209421#2 -40696199#0"/>
    </vehicle>
    <vehicle id="2" depart="14.00" departLane="best" departSpeed="max">
        <route edges="27994464#3 1185209421#0 1185209421#2 40696199#1"/>
    </vehicle>
    <vehicle id="6" depart="42.00" departLane="best" departSpeed="max">
        <route edges="-1185209422#1 -1185209422#0 -27994464#3"/>
    </vehicle>
    <vehicle id="8" depart="56.00" departLane="best" departSpeed="max">
        <route edges="491889865#0 491889865#1 491889865#2 491889865#3 27994428#0 27994428#1 1185209422#0 1185209422#1 1185209422#2 40696199#0 -1185209421#2 -1185209421#0"/>
    </vehicle>
    <vehicle id="9" depart="63.00" departLane="best" departSpeed="max">
        <route edges="491889865#0 491889865#1 491889865#2 491889865#3 27994428#0 27994428#1 1185209421#0 1185209421#2 40696199#1"/>
    </vehicle>
    <vehicle id="12" depart="84.00" departLane="best" departSpeed="max">
        <route edges="-1185467340 -40696197 27994464#1 -28103470 -27994446#2 -27994446#1 -27994446#0"/>
    </vehicle>
    <vehicle id="13" depart="91.00" departLane="best" departSpeed="max">
        <route edges="491889865#1 491889865#2 491889865#3 27994428#0 -27994446#4 -27994446#3 -27994446#2 -40696220#1 694335187 27994446#1 27994446#2 27994446#3"/>
    </vehicle>
    <vehicle id="14" depart="98.00" departLane="best" departSpeed="max">
        <route edges="491889865#0 491889865#1 491889865#2 491889865#3 1103401541#0 464465162#1"/>
    </vehicle>
    <vehicle id="17" depart="119.00" departLane="best" departSpeed="max">
        <route edges="491889865#0 40696220#0 40696220#1 27994446#2 28103470 27994464#2"/>
    </vehicle>
    <vehicle id="18" depart="126.00" departLane="best" departSpeed="max">
        <route edges="491889865#3 27994428#0"/>
    </vehicle>
    <vehicle id="19" depart="133.00" departLane="best" departSpeed="max">
        <route edges="27994464#0 27994464#1 27994464#2 27994464#3 -27994428#1"/>
    </vehicle>
    <vehicle id="21" depart="147.00" departLane="best" departSpeed="max">
        <route edges="-1185209422#3 -1185209422#2 -1185209422#1 -1185209422#0 1185209421#0 -40696205#1"/>
    </vehicle>
    <vehicle id="23" depart="161.00" departLane="best" departSpeed="max">
        <route edges="27994446#0 27994446#1 27994446#2 28103470 27994464#2 27994464#3 1185209422#0 1185209422#1 1185209422#2 1185209422#3"/>
    </vehicle>
    <vehicle id="24" depart="168.00" departLane="best" departSpeed="max">
        <route edges="-688608667 40696205#0 40696205#1 -1185209421#0 -27994464#3 -28103471"/>
    </vehicle>
    <vehicle id="25" depart="175.00" departLane="best" departSpeed="max">
        <route edges="-28103471 27994446#4 27994428#1 1185209421#0 -40696205#1 -40696205#0 688608667"/>
    </vehicle>
    <vehicle id="26" depart="182.00" departLane="best" departSpeed="max">
        <route edges="27994446#1 27994446#2 27994446#3 27994446#4"/>
    </vehicle>
    <vehicle id="31" depart="217.00" departLane="best" departSpeed="max">
        <route edges="491889865#0 491889865#1 491889865#2 491889865#3 1103401541#0 464465162#1"/>
    </vehicle>
    <vehicle id="32" depart="224.00" departLane="best" departSpeed="max">
        <route edges="-27994446#2 -40696220#1 -40696220#0 491889865#1 491889865#2 491889865#3 27994428#0 27994428#1 1185209421#0 1185209421#2 -40696199#0 -1185209422#2"/>
    </vehicle>
    <vehicle id="36" depart="252.00" departLane="best" departSpeed="max">
        <route edges="27994446#3 27994446#4 27994428#1 1185209422#0 1185209422#1 1185209422#2 1185209422#3"/>
    </vehicle>
    <vehicle id="38" depart="266.00" departLane="best" departSpeed="max">
        <route edges="-28103470 -27994446#2 -40696220#1"/>
    </vehicle>
    <vehicle id="40" depart="280.00" departLane="best" departSpeed="max">
        <route edges="27994428#1 -27994464#3 -28103471 27994446#4 -27994428#0 1301808820 1299932382 519734960"/>
    </vehicle>
    <vehicle id="41" depart="287.00" departLane="best" departSpeed="max">
        <route edges="-688608667 40696205#0 40696205#1 -1185209421#0 -27994428#1 -27994446#4 -27994446#3 -27994446#2 -27994446#1 -1185467340 -40696197"/>
    </vehicle>
    <vehicle id="42" depart="294.00" departLane="best" departSpeed="max">
        <route edges="886153775#0 1351994265#0 1326496636 243553545#1-AddedOnRampEdge"/>
    </vehicle>
    <vehicle id="43" depart="301.00" departLane="best" departSpeed="max">
        <route edges="-1185467340 -40696197 27994464#1 27994464#2 27994464#3 -27994428#1"/>
    </vehicle>
    <vehicle id="44" depart="308.00" departLane="best" departSpeed="max">
        <route edges="-1424147361 40696205#0 40696205#1 -1185209421#0 -27994428#1 -27994446#4 -27994446#3 28103470"/>
    </vehicle>
    <vehicle id="45" depart="315.00" departLane="best" departSpeed="max">
        <route edges="491889865#0 491889865#1 491889865#2 491889865#3 1301808820"/>
    </vehicle>
    <vehicle id="46" depart="322.00" departLane="best" departSpeed="max">
        <route edges="886153775#0 1351994265#0 1351994265#1 886153774 243553548"/>
    </vehicle>
    <vehicle id="50" depart="350.00" departLane="best" departSpeed="max">
        <route edges="-28103471 -27994446#3 28103470 -27994464#1 40696197"/>
    </vehicle>
    <vehicle id="53" depart="371.00" departLane="best" departSpeed="max">
        <route edges="1185209421#2 -40696199#0 -1185209422#2 -1185209422#1 -1185209422#0 -27994464#3 -27994464#2 -27994464#1 -27994464#0"/>
    </vehicle>
    <vehicle id="55" depart="385.00" departLane="best" departSpeed="max">
        <route edges="-40696199#1 -1185209421#2 -1185209421#0 -27994464#3 -27994464#2 -27994464#1 40696197"/>
    </vehicle>
    <vehicle id="56" depart="392.00" departLane="best" departSpeed="max">
        <route edges="27994446#0 27994446#1 27994446#2 28103470 -27994464#1 -27994464#0"/>
    </vehicle>
    <vehicle id="59" depart="413.00" departLane="best" departSpeed="max">
        <route edges="-1110221362 40696220#1 27994446#2 27994446#3 27994446#4 27994428#1 1185209421#0"/>
    </vehicle>
    <vehicle id="60" depart="420.00" departLane="best" departSpeed="max">
        <route edges="-1185209422#0 1185209421#0 -40696205#1 -40696205#0 688608667"/>
    </vehicle>
    <vehicle id="61" depart="427.00" departLane="best" departSpeed="max">
        <route edges="49989519 886153775#0 1351994265#0 1351994265#1 491889864#1 491889864#2"/>
    </vehicle>
    <vehicle id="62" depart="434.00" departLane="best" departSpeed="max">
        <route edges="-40696199#1 -1185209421#2 -1185209421#0 -27994428#1 -27994446#4 -27994446#3 -27994446#2 -27994446#1 -27994446#0"/>
    </vehicle>
    <vehicle id="64" depart="448.00" departLane="best" departSpeed="max">
        <route edges="-1185209422#3 -1185209422#2 -1185209422#1 -1185209422#0 1185209421#0 -40696205#1 -40696205#0 1424147361"/>
    </vehicle>
    <vehicle id="65" depart="455.00" departLane="best" departSpeed="max">
        <route edges="-1185209422#3 -1185209422#2 -1185209422#1 -1185209422#0 -27994428#1 -27994428#0 1103401541#0 464465162#1"/>
    </vehicle>
    <vehicle id="66" depart="462.00" departLane="best" departSpeed="max">
        <route edges="40696205#0 40696205#1 -1185209421#0 -27994428#1 -27994446#4"/>
    </vehicle>
    <vehicle id="67" depart="469.00" departLane="best" departSpeed="max">
        <route edges="1108993653 1351994265#0 1351994265#1 886153774 243553548"/>
    </vehicle>
    <vehicle id="68" depart="476.00" departLane="best" departSpeed="max">
        <route edges="-28103470 27994446#3 27994446#4 -27994428#0 1301808820 1299932382 519734960"/>
    </vehicle>
    <vehicle id="73" depart="511.00" departLane="best" departSpeed="max">
        <route edges="1108993653 1351994265#0 1351994265#1 886153774 243553545#2"/>
    </vehicle>
    <vehicle id="74" depart="518.00" departLane="best" departSpeed="max">
        <route edges="-1424147361 40696205#0 40696205#1 1185209421#2 -40696199#0"/>
    </vehicle>
    <vehicle id="75" depart="525.00" departLane="best" departSpeed="max">
        <route edges="-40696199#1 -1185209421#2 -1185209421#0 -27994428#1 -27994446#4 -27994446#3 -27994446#2 -40696220#1 694335187 27994446#1"/>
    </vehicle>
    <vehicle id="76" depart="532.00" departLane="best" departSpeed="max">
        <route edges="-27994446#2 -27994446#1 -1185467340 -40696197"/>
    </vehicle>
    <vehicle id="77" depart="539.00" departLane="best" departSpeed="max">
        <route edges="-1185209422#3 -1185209422#2 -1185209422#1 -1185209422#0 -27994464#3 -28103471 -27994446#3 28103470"/>
    </vehicle>
    <vehicle id="78" depart="546.00" departLane="best" departSpeed="max">
        <route edges="-27994446#2 -40696220#1 -40696220#0 491889865#1 491889865#2 491889865#3 1301808820 1299932382 519734960"/>
    </vehicle>
    <vehicle id="79" depart="553.00" departLane="best" departSpeed="max">
        <route edges="491889865#3 27994428#0 -27994446#4 -27994446#3 -27994446#2 -27994446#1 -27994446#0"/>
    </vehicle>
    <vehicle id="80" depart="560.00" departLane="best" departSpeed="max">
        <route edges="-27994446#4 28103471 27994464#3 1185209421#0 1185209421#2 40696199#1"/>
    </vehicle>
    <vehicle id="83" depart="581.00" departLane="best" departSpeed="max">
        <route edges="491889865#0 40696220#0 40696220#1 27994446#2 28103470 -27994464#1"/>
    </vehicle>
    <vehicle id="86" depart="602.00" departLane="best" departSpeed="max">
        <route edges="27994464#2 27994464#3 1185209421#0 1185209421#2 40696199#1"/>
    </vehicle>
    <vehicle id="88" depart="616.00" departLane="best" departSpeed="max">
        <route edges="-688608667 40696205#0 40696205#1 -1185209421#0 1185209422#0 1185209422#1"/>
    </vehicle>
    <vehicle id="92" depart="644.00" departLane="best" departSpeed="max">
        <route edges="-27994464#2 -28103470 27994446#3 27994446#4 -27994428#0 1301808820 1299932382 519734960"/>
    </vehicle>
    <vehicle id="95" depart="665.00" departLane="best" departSpeed="max">
        <route edges="886153775#0 1351994265#0 1351994265#1 491889864#1 491889864#2"/>
    </vehicle>
    <vehicle id="96" depart="672.00" departLane="best" departSpeed="max">
        <route edges="886153772 519734960"/>
    </vehicle>
    <vehicle id="97" depart="679.00" departLane="best" departSpeed="max">
        <route edges="491889865#1 491889865#2 491889865#3 27994428#0 27994428#1 -27994464#3 -27994464#2 -27994464#1 -27994464#0"/>
    </vehicle>
    <vehicle id="99" depart="693.00" departLane="best" departSpeed="max">
        <route edges="-688608667 40696205#0 40696205#1 -1185209421#0 -27994428#1 -27994446#4 -27994446#3 -27994446#2 -27994446#1 -27994446#0"/>
    </vehicle>
    <vehicle id="100" depart="700.00" departLane="best" departSpeed="max">
        <route edges="-688608667 40696205#0 40696205#1 -1185209421#0 -27994428#1 -27994446#4 -27994446#3 -27994446#2 -40696220#1 694335187"/>
    </vehicle>
    <vehicle id="101" depart="707.00" departLane="best" departSpeed="max">
        <route edges="-28103470 27994446#3 27994446#4 -27994428#0 1103401541#0 464465162#1"/>
    </vehicle>
    <vehicle id="108" depart="756.00" departLane="best" departSpeed="max">
        <route edges="-1185209422#3 -1185209422#2 -1185209422#1 -1185209422#0 -27994464#3 -28103471 27994446#4 27994428#1"/>
    </vehicle>
    <vehicle id="109" depart="763.00" departLane="best" departSpeed="max">
        <route edges="1185209422#0 1185209422#1 1185209422#2 40696199#0 -1185209421#2 -1185209421#0 -27994428#1 -27994446#4 -27994446#3 -27994446#2 -40696220#1 -40696220#0 491889865#1"/>
    </vehicle>
    <vehicle id="111" depart="777.00" departLane="best" departSpeed="max">
        <route edges="-1185209422#3 -1185209422#2 -1185209422#1 -1185209422#0 -27994464#3 -27994464#2 -27994464#1 -27994464#0"/>
    </vehicle>
    <vehicle id="112" depart="784.00" departLane="best" departSpeed="max">
        <route edges="27994446#0 27994446#1 27994446#2 27994446#3 27994446#4 27994428#1 1185209421#0 1185209421#2 40696199#1"/>
    </vehicle>
    <vehicle id="113" depart="791.00" departLane="best" departSpeed="max">
        <route edges="-27994446#3"/>
    </vehicle>
    <vehicle id="115" depart="805.00" departLane="best" departSpeed="max">
        <route edges="27994446#0 27994446#1 27994446#2 28103470 27994464#2"/>
    </vehicle>
    <vehicle id="117" depart="819.00" departLane="best" departSpeed="max">
        <route edges="1185467340 27994446#1 27994446#2 27994446#3 27994446#4 27994428#1 1185209421#0 -40696205#1 -40696205#0 688608667"/>
    </vehicle>
    <vehicle id="119" depart="833.00" departLane="best" departSpeed="max">
        <route edges="-27994446#4 28103471 27994464#3 1185209422#0 1185209422#1 1185209422#2 1185209422#3"/>
    </vehicle>
    <vehicle id="121" depart="847.00" departLane="best" departSpeed="max">
        <route edges="-40696199#1 -1185209421#2 -1185209421#0 -27994428#1 -27994428#0 1103401541#0 464465162#1"/>
    </vehicle>
    <vehicle id="122" depart="854.00" departLane="best" departSpeed="max">
        <route edges="-1185209422#3 -1185209422#2 -1185209422#1 -1185209422#0 1185209421#0 -40696205#1 -40696205#0 1424147361"/>
    </vehicle>
    <vehicle id="123" depart="861.00" departLane="best" departSpeed="max">
        <route edges="-1185209422#3 -1185209422#2 -1185209422#1 -1185209422#0 -27994464#3 -28103471"/>
    </vehicle>
    <vehicle id="124" depart="868.00" departLane="best" departSpeed="max">
        <route edges="-28103470 27994446#3 27994446#4 27994428#1 1185209421#0 -40696205#1 -40696205#0 688608667"/>
    </vehicle>
    <vehicle id="126" depart="882.00" departLane="best" departSpeed="max">
        <route edges="-688608667 40696205#0 40696205#1 -1185209421#0 -27994464#3 -27994464#2 -27994464#1 -27994464#0"/>
    </vehicle>
    <vehicle id="127" depart="889.00" departLane="best" departSpeed="max">
        <route edges="491889865#0 491889865#1 491889865#2 491889865#3 27994428#0 27994428#1 1185209421#0 1185209421#2 40696199#1"/>
    </vehicle>
    <vehicle id="128" depart="896.00" departLane="best" departSpeed="max">
        <route edges="27994446#0 27994446#1 -40696220#1 694335187"/>
    </vehicle>
    <vehicle id="129" depart="903.00" departLane="best" departSpeed="max">
        <route edges="27994446#2 28103470 27994464#2 27994464#3 1185209422#0 1185209422#1 1185209422#2 40696199#0 -1185209421#2 -1185209421#0"/>
    </vehicle>
    <vehicle id="131" depart="917.00" departLane="best" departSpeed="max">
        <route edges="27994446#4 27994428#1 1185209421#0 -40696205#1 -40696205#0 688608667"/>
    </vehicle>
    <vehicle id="132" depart="924.00" departLane="best" departSpeed="max">
        <route edges="-1424147361 40696205#0 40696205#1 -1185209421#0 -27994428#1 -27994446#4 -27994446#3 -27994446#2"/>
    </vehicle>
    <vehicle id="134" depart="938.00" departLane="best" departSpeed="max">
        <route edges="-40696197 27994464#1 27994464#2 -28103471 27994446#4"/>
    </vehicle>
    <vehicle id="135" depart="945.00" departLane="best" departSpeed="max">
        <route edges="27994464#0 27994464#1 -28103470"/>
    </vehicle>
    <vehicle id="138" depart="966.00" departLane="best" departSpeed="max">
        <route edges="491889865#0 40696220#0 40696220#1 -27994446#1 -27994446#0"/>
    </vehicle>
    <vehicle id="140" depart="980.00" departLane="best" departSpeed="max">
        <route edges="-1110221362 -40696220#0 491889865#1 491889865#2 491889865#3 1103401541#0 464465162#1"/>
    </vehicle>
    <vehicle id="144" depart="1008.00" departLane="best" departSpeed="max">
        <route edges="-1185209422#3 -1185209422#2 -1185209422#1 -1185209422#0 -27994428#1 -27994428#0 1301808820 1299932382 519734960"/>
    </vehicle>
    <vehicle id="145" depart="1015.00" departLane="best" departSpeed="max">
        <route edges="49989519 886153775#0 1351994265#0 1351994265#1 886153774 243553548"/>
    </vehicle>
    <vehicle id="146" depart="1022.00" departLane="best" departSpeed="max">
        <route edges="491889865#0 491889865#1 491889865#2 491889865#3 27994428#0 27994428#1"/>
    </vehicle>
    <vehicle id="147" depart="1029.00" departLane="best" departSpeed="max">
        <route edges="-1424147361 40696205#0 40696205#1 -1185209421#0 -27994428#1 -27994446#4"/>
    </vehicle>
    <vehicle id="148" depart="1036.00" departLane="best" departSpeed="max">
        <route edges="-40696199#1 -1185209421#2 -1185209421#0 -27994428#1 -27994428#0 1301808820 1299932382 519734960"/>
    </vehicle>
    <vehicle id="149" depart="1043.00" departLane="best" departSpeed="max">
        <route edges="491889865#0 491889865#1 491889865#2 491889865#3"/>
    </vehicle>
    <vehicle id="151" depart="1057.00" departLane="best" departSpeed="max">
        <route edges="-27994464#2 -28103470 -27994446#2 -27994446#1 -27994446#0"/>
    </vehicle>
    <vehicle id="152" depart="1064.00" departLane="best" departSpeed="max">
        <route edges="40696220#1 27994446#2 27994446#3 27994446#4 -27994428#0 1301808820 1299932382 519734960"/>
    </vehicle>
    <vehicle id="153" depart="1071.00" departLane="best" departSpeed="max">
        <route edges="-688608667 40696205#0 40696205#1 -1185209421#0 -27994428#1 -27994446#4 -27994446#3 28103470 27994464#2"/>
    </vehicle>
    <vehicle id="156" depart="1092.00" departLane="best" departSpeed="max">
        <route edges="491889865#0 491889865#1 491889865#2 491889865#3 1301808820 1299932382 519734960"/>
    </vehicle>
    <vehicle id="157" depart="1099.00" departLane="best" departSpeed="max">
        <route edges="-1185209422#1 -1185209422#0 -27994428#1 -27994428#0 1103401541#0 464465162#1"/>
    </vehicle>
    <vehicle id="158" depart="1106.00" departLane="best" departSpeed="max">
        <route edges="-40696199#1 -1185209421#2 -40696205#1 -40696205#0 688608667"/>
    </vehicle>
    <vehicle id="159" depart="1113.00" departLane="best" departSpeed="max">
        <route edges="491889865#0 491889865#1 491889865#2 491889865#3"/>
    </vehicle>
    <vehicle id="164" depart="1148.00" departLane="best" departSpeed="max">
        <route edges="1108993653 1351994265#0 1326496636 243553545#1-AddedOnRampEdge 243553545#1 -886153774"/>
    </vehicle>
    <vehicle id="165" depart="1155.00" departLane="best" departSpeed="max">
        <route edges="491889865#0 491889865#1 491889865#2 491889865#3 27994428#0 27994428#1 1185209421#0 -40696205#1 -40696205#0"/>
    </vehicle>
    <vehicle id="166" depart="1162.00" departLane="best" departSpeed="max">
        <route edges="-1185209422#1 -1185209422#0 -27994464#3 -27994464#2"/>
    </vehicle>
    <vehicle id="167" depart="1169.00" departLane="best" departSpeed="max">
        <route edges="-40696199#1 -1185209421#2 -1185209421#0 -27994428#1 -27994446#4 -27994446#3 -27994446#2 -40696220#1 -40696220#0 491889865#1 491889865#2 491889865#3"/>
    </vehicle>
    <vehicle id="169" depart="1183.00" departLane="best" departSpeed="max">
        <route edges="27994446#0 27994446#1 27994446#2 28103470 27994464#2 27994464#3 1185209422#0 1185209422#1 1185209422#2 1185209422#3"/>
    </vehicle>
    <vehicle id="177" depart="1239.00" departLane="best" departSpeed="max">
        <route edges="-688608667 40696205#0 40696205#1 -1185209421#0 -27994428#1 -27994446#4 -27994446#3 -27994446#2 -40696220#1 -40696220#0 491889865#1 491889865#2 491889865#3 27994428#0"/>
    </vehicle>
    <vehicle id="179" depart="1253.00" departLane="best" departSpeed="max">
        <route edges="-1110221362 -40696220#0 491889865#1 491889865#2 491889865#3 1301808820 1299932382 519734960"/>
    </vehicle>
    <vehicle id="181" depart="1267.00" departLane="best" departSpeed="max">
        <route edges="28103470 27994464#2 27994464#3 1185209421#0 1185209421#2 40696199#1"/>
    </vehicle>
    <vehicle id="182" depart="1274.00" departLane="best" departSpeed="max">
        <route edges="-688608667 40696205#0 40696205#1 -1185209421#0 -27994428#1 -27994446#4 -27994446#3 -27994446#2 -27994446#1 -27994446#0"/>
    </vehicle>
    <vehicle id="183" depart="1281.00" departLane="best" departSpeed="max">
        <route edges="27994446#4 27994428#1 1185209421#0 1185209421#2"/>
    </vehicle>
    <vehicle id="184" depart="1288.00" departLane="best" departSpeed="max">
        <route edges="-40696199#1 -1185209421#2 -1185209421#0 -27994428#1 -27994446#4 -27994446#3 -27994446#2 -40696220#1 -40696220#0 491889865#1"/>
    </vehicle>
    <vehicle id="186" depart="1302.00" departLane="best" departSpeed="max">
        <route edges="-40696199#1 -1185209421#2 -1185209421#0 -27994464#3 -27994464#2 -27994464#1 40696197 1185467340"/>
    </vehicle>
    <vehicle id="188" depart="1316.00" departLane="best" departSpeed="max">
        <route edges="-1424147361 40696205#0 40696205#1 -1185209421#0 -27994428#1 -27994428#0 1301808820"/>
    </vehicle>
    <vehicle id="193" depart="1351.00" departLane="best" departSpeed="max">
        <route edges="27994446#2 27994446#3 27994446#4 27994428#1 1185209421#0 -40696205#1 -40696205#0 1424147361"/>
    </vehicle>
    <vehicle id="196" depart="1372.00" departLane="best" departSpeed="max">
        <route edges="491889865#0 40696220#0 40696220#1 27994446#2 28103470 -27994464#1 -27994464#0"/>
    </vehicle>
    <vehicle id="198" depart="1386.00" departLane="best" departSpeed="max">
        <route edges="27994446#0 27994446#1 27994446#2 28103470 27994464#2 27994464#3 1185209422#0"/>
    </vehicle>
    <vehicle id="199" depart="1393.00" departLane="best" departSpeed="max">
        <route edges="491889865#0 491889865#1 491889865#2 491889865#3 1103401541#0 464465162#1"/>
    </vehicle>
    <vehicle id="200" depart="1400.00" departLane="best" departSpeed="max">
        <route edges="27994464#0 27994464#1 27994464#2 27994464#3 1185209421#0 1185209421#2 -40696199#0"/>
    </vehicle>
    <vehicle id="202" depart="1414.00" departLane="best" departSpeed="max">
        <route edges="-27994464#1 40696197 1185467340 27994446#1 27994446#2 27994446#3 27994446#4 27994428#1 1185209421#0 -40696205#1 -40696205#0 1424147361"/>
    </vehicle>
    <vehicle id="203" depart="1421.00" departLane="best" departSpeed="max">
        <route edges="491889865#1 491889865#2 491889865#3 27994428#0 -27994446#4 -27994446#3 -27994446#2 -27994446#1 -27994446#0"/>
    </vehicle>
    <vehicle id="204" depart="1428.00" departLane="best" departSpeed="max">
        <route edges="-688608667 40696205#0 40696205#1 -1185209421#0 -27994428#1 -27994446#4 -27994446#3 28103470"/>
    </vehicle>
    <vehicle id="206" depart="1442.00" departLane="best" departSpeed="max">
        <route edges="1185209421#0 1185209421#2 -40696199#0 -1185209422#2 -1185209422#1 -1185209422#0 -27994464#3 -27994464#2 -28103470 -27994446#2 -40696220#1"/>
    </vehicle>
    <vehicle id="207" depart="1449.00" departLane="best" departSpeed="max">
        <route edges="27994446#3 28103471 -27994464#2 -28103470 -27994446#2 -27994446#1 -1110221362"/>
    </vehicle>
    <vehicle id="208" depart="1456.00" departLane="best" departSpeed="max">
        <route edges="28103471 27994464#3 -27994428#1 -27994428#0 1103401541#0 464465162#1"/>
    </vehicle>
    <vehicle id="211" depart="1477.00" departLane="best" departSpeed="max">
        <route edges="1185209422#2 40696199#0 -1185209421#2 -1185209421#0 -27994428#1"/>
    </vehicle>
    <vehicle id="212" depart="1484.00" departLane="best" departSpeed="max">
        <route edges="-27994464#2 -28103470 -27994446#2 -40696220#1 -40696220#0 491889865#1"/>
    </vehicle>
    <vehicle id="213" depart="1491.00" departLane="best" departSpeed="max">
        <route edges="1108993653 1351994265#0 1351994265#1 491889864#1 491889864#2"/>
    </vehicle>
    <vehicle id="214" depart="1498.00" departLane="best" departSpeed="max">
        <route edges="27994464#0 27994464#1 -28103470 -27994446#2 -40696220#1 694335187"/>
    </vehicle>
    <vehicle id="215" depart="1505.00" departLane="best" departSpeed="max">
        <route edges="27994446#0 27994446#1 27994446#2 27994446#3 27994446#4 27994428#1 1185209421#0 -40696205#1 -40696205#0 688608667"/>
    </vehicle>
    <vehicle id="220" depart="1540.00" departLane="best" departSpeed="max">
        <route edges="1108993653 -886153775#1 -49989519"/>
    </vehicle>
    <vehicle id="221" depart="1547.00" departLane="best" departSpeed="max">
        <route edges="-27994464#1 40696197 1185467340 27994446#1 27994446#2 27994446#3 28103471"/>
    </vehicle>
    <vehicle id="225" depart="1575.00" departLane="best" departSpeed="max">
        <route edges="-40696197 27994464#1 27994464#2 27994464#3 -27994428#1 -27994428#0 1103401541#0"/>
    </vehicle>
    <vehicle id="227" depart="1589.00" departLane="best" departSpeed="max">
        <route edges="-27994446#2 -40696220#1 -40696220#0 491889865#1 491889865#2 491889865#3 27994428#0 27994428#1 1185209421#0 1185209421#2 40696199#1"/>
    </vehicle>
    <vehicle id="228" depart="1596.00" departLane="best" departSpeed="max">
        <route edges="27994464#0 27994464#1 -28103470 -27994446#2 -27994446#1 -27994446#0"/>
    </vehicle>
    <vehicle id="230" depart="1610.00" departLane="best" departSpeed="max">
        <route edges="-688608667 40696205#0 40696205#1 -1185209421#0 -27994464#3 -27994464#2 -28103470"/>
    </vehicle>
    <vehicle id="232" depart="1624.00" departLane="best" departSpeed="max">
        <route edges="27994428#1 1185209421#0 1185209421#2 40696199#1"/>
    </vehicle>
    <vehicle id="233" depart="1631.00" departLane="best" departSpeed="max">
        <route edges="491889865#2 491889865#3 1103401541#0 464465162#1"/>
    </vehicle>
    <vehicle id="234" depart="1638.00" departLane="best" departSpeed="max">
        <route edges="-688608667 40696205#0 40696205#1 -1185209421#0"/>
    </vehicle>
    <vehicle id="235" depart="1645.00" departLane="best" departSpeed="max">
        <route edges="-40696220#0 491889865#1 491889865#2 491889865#3 1103401541#0 464465162#1"/>
    </vehicle>
    <vehicle id="236" depart="1652.00" departLane="best" departSpeed="max">
        <route edges="491889865#2 491889865#3 27994428#0 27994428#1 1185209421#0 -40696205#1 -40696205#0 688608667"/>
    </vehicle>
    <vehicle id="239" depart="1673.00" departLane="best" departSpeed="max">
        <route edges="-27994446#1 -1185467340 -40696197"/>
    </vehicle>
    <vehicle id="241" depart="1687.00" departLane="best" departSpeed="max">
        <route edges="-688608667 40696205#0 40696205#1 -1185209421#0 -27994464#3 -27994464#2 -27994464#1 -27994464#0"/>
    </vehicle>
    <vehicle id="243" depart="1701.00" departLane="best" departSpeed="max">
        <route edges="27994446#0 27994446#1 27994446#2 27994446#3 27994446#4 27994428#1 1185209421#0 1185209421#2 -40696199#0 -1185209422#2 -1185209422#1"/>
    </vehicle>
    <vehicle id="245" depart="1715.00" departLane="best" departSpeed="max">
        <route edges="-1185209422#1 -1185209422#0 -27994464#3 -27994464#2 -27994464#1 40696197"/>
    </vehicle>
    <vehicle id="248" depart="1736.00" departLane="best" departSpeed="max">
        <route edges="-27994464#2 -28103470 -27994446#2 -27994446#1 -27994446#0"/>
    </vehicle>
    <vehicle id="251" depart="1757.00" departLane="best" departSpeed="max">
        <route edges="27994446#2 27994446#3 27994446#4 -27994428#0 1103401541#0 464465162#1"/>
    </vehicle>
    <vehicle id="252" depart="1764.00" departLane="best" departSpeed="max">
        <route edges="27994446#2 27994446#3 27994446#4 -27994428#0 1103401541#0 464465162#1"/>
    </vehicle>
    <vehicle id="254" depart="1778.00" departLane="best" departSpeed="max">
        <route edges="-1185209422#0 -27994464#3 -27994464#2 -27994464#1 -27994464#0"/>
    </vehicle>
    <vehicle id="255" depart="1785.00" departLane="best" departSpeed="max">
        <route edges="-1424147361 40696205#0 40696205#1 1185209421#2 40696199#1"/>
    </vehicle>
    <vehicle id="257" depart="1799.00" departLane="best" departSpeed="max">