<?xml version="1.0" encoding="UTF-8"?>

<!-- generated on 2026-01-08 15:27:35.227526 by randomTrips.py v1_18_0+0000-03ecfdea036
<configuration>
    <net-file value="C:\Users\91948\OneDrive\Desktop\Reinforcement_Signal_Optimizer\backend\app\sumo\network\tin_factory.net.xml"/>
    <route-file value="C:\Users\91948\OneDrive\Desktop\Reinforcement_Signal_Optimizer\backend\app\sumo\network\routes_tin_factory.rou.xml"/>
    <trip-attributes value="departLane=&quot;best&quot; departSpeed=&quot;max&quot;"/>
    <fringe-factor value="10"/>
    <min-distance value="50.0"/>
    <validate value="True"/>
    <period value="7.0"/>
</configuration>
-->

<!-- generated on 2026-01-08 15:27:35 by Eclipse SUMO duarouter Version 1.18.0
<configuration xmlns:xsi="http://www.w3.org/2001/XMLSchema-instance" xsi:noNamespaceSchemaLocation="http://sumo.dlr.de/xsd/duarouterConfiguration.xsd">

    <input>
        <net-file value="C:\Users\91948\OneDrive\Desktop\Reinforcement_Signal_Optimizer\backend\app\sumo\network\tin_factory.net.xml"/>
        <route-files value="trips.trips.xml"/>
    </input>

    <output>
        <output-file value="C:\Users\91948\OneDrive\Desktop\Reinforcement_Signal_Optimizer\backend\app\sumo\network\routes_tin_factory.rou.xml"/>
        <alternatives-output value="NUL"/>
    </output>

    <time>
        <begin value="0.0"/>
        <end value="3600.0"/>
    </time>

    <report>
        <no-warnings value="true"/>
        <ignore-errors value="true"/>
        <no-step-log value="true"/>
    </report>

</configuration>
-->

<routes xmlns:xsi="http://www.w3.org/2001/XMLSchema-instance" xsi:noNamespaceSchemaLocation="http://sumo.dlr.de/xsd/routes_file.xsd">
    <vehicle id="0" depart="0.00" departLane="best" departSpeed="max">
        <route edges="1393798265 1103814254#3 1103814254#4 -1103814252#1 -1103814252#0"/>
    </vehicle>
    <vehicle id="2" depart="14.00" departLane="best" departSpeed="max">
        <route edges="142865622#2 142865622#3 142865622#4 155830601"/>
    </vehicle>
    <vehicle id="4" depart="28.00" departLane="best" departSpeed="max">
        <route edges="-338103118 -1103814254#5 -1103814252#1 -1103814252#0"/>
    </vehicle>
    <vehicle id="21" depart="147.00" departLane="best" departSpeed="max">
        <route edges="-1228550073 -155830603#1 1101614169 155830602#1 -338105122"/>
    </vehicle>
    <vehicle id="25" depart="175.00" departLane="best" departSpeed="max">
        <route edges="-338101463 -1103814254#3 -1103814254#2 -142865784"/>
    </vehicle>
    <vehicle id="33" depart="231.00" departLane="best" departSpeed="max">
        <route edges="-1368285724 1103814254#0 1103814254#1 1103814254#2 1103814254#3 1103814254#4 -1103814252#1 -1103814252#0"/>
    </vehicle>
    <vehicle id="34" depart="238.00" departLane="best" departSpeed="max">
        <route edges="-155830602#3 -155830602#1 -155830602#0"/>
    </vehicle>
    <vehicle id="41" depart="287.00" departLane="best" departSpeed="max">
        <route edges="1261359822#0 -1368285724 1103814254#0 1103814254#1 1103814254#2 1103814254#3 338101463"/>
    </vehicle>
    <vehicle id="42" depart="294.00" departLane="best" departSpeed="max">
        <route edges="-338102722 1103814252#1 -1103814254#4 -1103814254#3 -1103814254#2 -142865784"/>
    </vehicle>
    <vehicle id="43" depart="301.00" departLane="best" departSpeed="max">
        <route edges="799366215 1103814254#0 1103814254#1 1103814254#2 1103814254#3 1103814254#4 1103814254#5 1103814254#6 1182409051#1"/>
    </vehicle>
    <vehicle id="46" depart="322.00" departLane="best" departSpeed="max">
        <route edges="142865784 -1103814254#1 -1103814254#0 1368285724 1261359822#1 1177167585#0 1177167585#1"/>
    </vehicle>
    <vehicle id="48" depart="336.00" departLane="best" departSpeed="max">
        <route edges="799366215 1103814254#0 1103814254#1 1103814254#2 1103814254#3 1103814254#4 1103814254#5 1103814254#6 1182409051#1"/>
    </vehicle>
    <vehicle id="50" depart="350.00" departLane="best" departSpeed="max">
        <route edges="-1101614168 142865623#0 142865623#1 155830603#0 1101614169 155830602#1"/>
    </vehicle>
    <vehicle id="52" depart="364.00" departLane="best" departSpeed="max">
        <route edges="-142865623#2 155830603#0 1101614169 155830602#1 -338105122 142865622#1"/>
    </vehicle>
    <vehicle id="53" depart="371.00" departLane="best" departSpeed="max">
        <route edges="-1103814254#2 -1103814254#1 -1103814254#0 1368285724 1261359822#1 1177167585#0 1177167585#1 1177167585#2 1177167585#3 1177167585#4"/>
    </vehicle>
    <vehicle id="56" depart="392.00" departLane="best" departSpeed="max">
        <route edges="-338104758 142865622#2 142865622#3 -142865623#2"/>
    </vehicle>
    <vehicle id="61" depart="427.00" departLane="best" departSpeed="max">
        <route edges="142865784 1103814254#2 1103814254#3 1103814254#4 1103814254#5 1103814254#6 1182409051#1"/>
    </vehicle>
    <vehicle id="63" depart="441.00" departLane="best" departSpeed="max">
        <route edges="239773584#3 239773584#4"/>
    </vehicle>
    <vehicle id="67" depart="469.00" departLane="best" departSpeed="max">
        <route edges="-1101614173 -142865622#2 -142865622#1 338105122 155830602#3"/>
    </vehicle>
    <vehicle id="69" depart="483.00" departLane="best" departSpeed="max">
        <route edges="-338104758 142865622#2 142865622#3 -142865623#2 -142865623#1 1183856191"/>
    </vehicle>
    <vehicle id="71" depart="497.00" departLane="best" departSpeed="max">
        <route edges="-338103118 -1103814254#5 -1103814254#4 -1103814254#3 -1103814254#2 -142865784"/>
    </vehicle>
    <vehicle id="73" depart="511.00" departLane="best" departSpeed="max">
        <route edges="-1183856191 -142865623#0 1101614168"/>
    </vehicle>
    <vehicle id="75" depart="525.00" departLane="best" departSpeed="max">
        <route edges="-338103118 1103814254#6 1182409051#1"/>
    </vehicle>
    <vehicle id="76" depart="532.00" departLane="best" departSpeed="max">
        <route edges="-1103814254#4 -1103814254#3 -1103814254#2 -1103814254#1 -142865785"/>
    </vehicle>
    <vehicle id="78" depart="546.00" departLane="best" departSpeed="max">
        <route edges="-1368285724 1103814254#0 1103814254#1 -142865784"/>
    </vehicle>
    <vehicle id="80" depart="560.00" departLane="best" departSpeed="max">
        <route edges="-1368285724 1103814254#0 1103814254#1 1103814254#2 1103814254#3 338101463"/>
    </vehicle>
    <vehicle id="82" depart="574.00" departLane="best" departSpeed="max">
        <route edges="-142865622#1 338105122 -155830602#1 -1101614169 -155830603#0 142865623#2"/>
    </vehicle>
    <vehicle id="83" depart="581.00" departLane="best" departSpeed="max">
        <route edges="-1183856191 142865623#1 142865623#2 -142865622#3 -142865622#2 -142865622#1 -142865622#0"/>
    </vehicle>
    <vehicle id="84" depart="588.00" departLane="best" departSpeed="max">
        <route edges="328758436#4 328758436#5 328758436#6 328758436#7 1280803367 -142865622#4 -142865623#2 -142865623#1 1183856191"/>
    </vehicle>
    <vehicle id="87" depart="609.00" departLane="best" departSpeed="max">
        <route edges="-338103118 -1103814254#5 -1103814252#1 1182408480"/>
    </vehicle>
    <vehicle id="88" depart="616.00" departLane="best" departSpeed="max">
        <route edges="142865622#1 142865622#2 142865622#3 142865622#4 155830601"/>
    </vehicle>
    <vehicle id="97" depart="679.00" departLane="best" departSpeed="max">
        <route edges="799366215 1368285724 1261359822#1 1177167585#0 1177167585#1 1177167585#2 1177167585#3 1177167585#4 1177167585#5 239773584#0 239773584#1 239773584#2 239773584#3 239773584#4"/>
    </vehicle>
    <vehicle id="98" depart="686.00" departLane="best" departSpeed="max">
        <route edges="799366215 1103814254#0 1103814254#1 1103814254#2 1103814254#3 1103814254#4 1103814254#5 338103118"/>
    </vehicle>
    <vehicle id="100" depart="700.00" departLane="best" departSpeed="max">
        <route edges="-338102722 1103814252#1 -1103814254#4 -1103814254#3 -1103814254#2 -1103814254#1 -1103814254#0"/>
    </vehicle>
    <vehicle id="103" depart="721.00" departLane="best" departSpeed="max">
        <route edges="-338103118 -1103814254#5 -1103814254#4 -1103814254#3 -1103814254#2 -1103814254#1 -1103814254#0 1368285724 1261359822#1 1177167585#0 1177167585#1"/>
    </vehicle>
    <vehicle id="118" depart="826.00" departLane="best" departSpeed="max">
        <route edges="1103814254#1 1103814254#2 1103814254#3 1103814254#4 1103814254#5 338103118"/>
    </vehicle>
    <vehicle id="119" depart="833.00" departLane="best" departSpeed="max">
        <route edges="-1183856191 142865623#1 142865623#2 155830602#0"/>
    </vehicle>
    <vehicle id="132" depart="924.00" departLane="best" departSpeed="max">
        <route edges="142865554#0 1103814252#1 1103814254#5 338103118"/>
    </vehicle>
    <vehicle id="141" depart="987.00" departLane="best" departSpeed="max">
        <route edges="-1101614168 142865623#0 142865623#1 155830603#0"/>
    </vehicle>
    <vehicle id="142" depart="994.00" departLane="best" departSpeed="max">
        <route edges="1393798265 -1103814254#2 -1103814254#1 -142865785"/>
    </vehicle>
    <vehicle id="144" depart="1008.00" departLane="best" departSpeed="max">
        <route edges="-338103118 -1103814254#5 -1103814252#1 -1103814252#0"/>
    </vehicle>
    <vehicle id="146" depart="1022.00" departLane="best" departSpeed="max">
        <route edges="328758436#0 328758436#2 328758436#3 328758436#4 328758436#5 328758436#6 328758436#7 1280803367 -142865622#4 -142865623#2 -142865623#1 1183856191"/>
    </vehicle>
    <vehicle id="153" depart="1071.00" departLane="best" departSpeed="max">
        <route edges="142865784 1103814254#2 1103814254#3 338101463"/>
    </vehicle>
    <vehicle id="155" depart="1085.00" departLane="best" departSpeed="max">
        <route edges="-1182409051#1 -1103814255 338103118"/>
    </vehicle>
    <vehicle id="157" depart="1099.00" departLane="best" departSpeed="max">
        <route edges="142865785 1103814254#1 1103814254#2 1103814254#3 338101463"/>
    </vehicle>
    <vehicle id="158" depart="1106.00" departLane="best" departSpeed="max">
        <route edges="-1101614168 142865623#0 142865623#1 142865623#2 -142865622#3 -142865622#2 -142865622#1 338105122 155830602#3"/>
    </vehicle>
    <vehicle id="159" depart="1113.00" departLane="best" departSpeed="max">
        <route edges="142865784 1103814254#2 1103814254#3 338101463"/>
    </vehicle>
    <vehicle id="169" depart="1183.00" departLane="best" departSpeed="max">
        <route edges="328758436#5 328758436#6 328758436#7 1280803367 -142865622#4 -142865622#3 -142865622#2 -142865622#1 -142865622#0"/>
    </vehicle>
    <vehicle id="171" depart="1197.00" departLane="best" departSpeed="max">
        <route edges="799366215 1103814254#0 -142865785"/>
    </vehicle>
    <vehicle id="172" depart="1204.00" departLane="best" departSpeed="max">
        <route edges="-1103814254#1 -1103814254#0 1368285724 1261359822#1 1177167585#0 1177167585#1 1177167585#2 1177167585#3 1177167585#4"/>
    </vehicle>
    <vehicle id="173" depart="1211.00" departLane="best" departSpeed="max">
        <route edges="142865622#1 142865622#2 142865622#3 -142865623#2 -142865623#1 -142865623#0 1101614168"/>
    </vehicle>
    <vehicle id="174" depart="1218.00" departLane="best" departSpeed="max">
        <route edges="1261359822#0 -1368285724 1103814254#0 1103814254#1 1103814254#2 1103814254#3 1103814254#4 1103814254#5 1103814254#6 1182409051#1"/>
    </vehicle>
    <vehicle id="176" depart="1232.00" departLane="best" departSpeed="max">
        <route edges="-142865623#0 -1228550073 -155830603#1 -155830603#0 142865623#2 142865622#4 155830601"/>
    </vehicle>
    <vehicle id="179" depart="1253.00" departLane="best" departSpeed="max">
        <route edges="-338101463 -1103814254#3 -1103814254#2"/>
    </vehicle>
    <vehicle id="182" depart="1274.00" departLane="best" departSpeed="max">
        <route edges="142865622#0 142865622#1 142865622#2 142865622#3 -142865623#2 -142865623#1 -142865623#0 1101614168"/>
    </vehicle>
    <vehicle id="185" depart="1295.00" departLane="best" departSpeed="max">
        <route edges="-1103814255 -1103814254#5 -1103814254#4 -1103814254#3 -1103814254#2 -1103814254#1 -1103814254#0 1368285724 1261359822#1 1177167585#0"/>
    </vehicle>
    <vehicle id="186" depart="1302.00" departLane="best" departSpeed="max">
        <route edges="328758436#5 328758436#6 328758436#7 1280803367 155830601"/>
    </vehicle>
    <vehicle id="187" depart="1309.00" departLane="best" departSpeed="max">
        <route edges="328758436#0 328758436#2 328758436#3 328758436#4 328758436#5 328758436#6 328758436#7 1190419785#1"/>
    </vehicle>
    <vehicle id="188" depart="1316.00" departLane="best" departSpeed="max">
        <route edges="-155830602#3 -155830602#1 -1101614169 -155830603#0 -142865623#1 1183856191"/>
    </vehicle>
    <vehicle id="189" depart="1323.00" departLane="best" departSpeed="max">
        <route edges="-1101614168 142865623#0 142865623#1 155830603#0 1101614169 155830602#1 -338105122"/>
    </vehicle>
    <vehicle id="191" depart="1337.00" departLane="best" departSpeed="max">
        <route edges="142865554#0 1182408480"/>
    </vehicle>
    <vehicle id="192" depart="1344.00" departLane="best" departSpeed="max">
        <route edges="-338103118 -1103814254#5 -1103814254#4 -1103814254#3 -1103814254#2 -142865784"/>
    </vehicle>
    <vehicle id="198" depart="1386.00" departLane="best" departSpeed="max">
        <route edges="142865554#0 1103814252#1 -1103814254#4 -1103814254#3 -1103814254#2 -1103814254#1 -142865785"/>
    </vehicle>
    <vehicle id="203" depart="1421.00" departLane="best" departSpeed="max">
        <route edges="-1183856191 142865623#1 142865623#2 142865622#4 155830601"/>
    </vehicle>
    <vehicle id="206" depart="1442.00" departLane="best" departSpeed="max">
        <route edges="-1103814254#1 -1103814254#0 1368285724 1261359822#1 1177167585#0 1177167585#1"/>
    </vehicle>
    <vehicle id="207" depart="1449.00" departLane="best" departSpeed="max">
        <route edges="-1183856191 142865623#1 142865623#2 -142865622#3 -142865622#2 338104758"/>
    </vehicle>
    <vehicle id="208" depart="1456.00" departLane="best" departSpeed="max">
        <route edges="1103814254#0 1103814254#1 1103814254#2 1103814254#3 1103814254#4 -1103814252#1 -1103814252#0"/>
    </vehicle>
    <vehicle id="210" depart="1470.00" departLane="best" departSpeed="max">
        <route edges="-338103118 -1103814254#5 -1103814254#4 -1103814254#3 -1103814254#2 -1103814254#1 -1103814254#0 1368285724 1261359822#1 1177167585#0 1177167585#1 1177167585#2 1177167585#3 1177167585#4 1177167585#5 239773584#0 239773584#1 239773584#2 239773584#3 239773584#4"/>
    </vehicle>
    <vehicle id="212" depart="1484.00" departLane="best" departSpeed="max">
        <route edges="1261359822#0 -1368285724 1103814254#0 1103814254#1 1103814254#2 1103814254#3 1103814254#4 1103814254#5 338103118"/>
    </vehicle>
    <vehicle id="213" depart="1491.00" departLane="best" departSpeed="max">
        <route edges="328758436#0 328758436#2 328758436#3 328758436#4 328758436#5 328758436#6 328758436#7 1190419785#1"/>
    </vehicle>
    <vehicle id="216" depart="1512.00" departLane="best" departSpeed="max">
        <route edges="328758436#0 328758436#2 328758436#3 328758436#4 328758436#5 328758436#6 328758436#7 1280803367 -142865622#4 -142865622#3 -142865622#2 -142865622#1 338105122 155830602#3"/>
    </vehicle>
    <vehicle id="219" depart="1533.00" departLane="best" departSpeed="max">
        <route edges="142865784 1103814254#2 1103814254#3 1103814254#4 1103814254#5 1103814254#6 1182409051#1"/>
    </vehicle>
    <vehicle id="221" depart="1547.00" departLane="best" departSpeed="max">
        <route edges="-1101614173 142865622#3 155830602#0 155830602#1 -338105122"/>
    </vehicle>
    <vehicle id="222" depart="1554.00" departLane="best" departSpeed="max">
        <route edges="-155830602#0 -142865623#2 -142865623#1 -142865623#0 1101614168"/>
    </vehicle>
    <vehicle id="227" depart="1589.00" departLane="best" departSpeed="max">
        <route edges="-338102722 1103814252#1 -1103814254#4 -1103814254#3 -1103814254#2 -142865784"/>
    </vehicle>
    <vehicle id="229" depart="1603.00" departLane="best" departSpeed="max">
        <route edges="155830603#0 1101614169 155830602#1 155830602#3"/>
    </vehicle>
    <vehicle id="232" depart="1624.00" departLane="best" departSpeed="max">
        <route edges="155830602#1 -338105122 142865622#1 338104758"/>
    </vehicle>
    <vehicle id="236" depart="1652.00" departLane="best" departSpeed="max">
        <route edges="-338103118 -1103814254#5 -1103814252#1 -1103814252#0"/>
    </vehicle>
    <vehicle id="239" depart="1673.00" departLane="best" departSpeed="max">
        <route edges="-338104758 -142865622#1 -142865622#0"/>
    </vehicle>
    <vehicle id="240" depart="1680.00" departLane="best" departSpeed="max">
        <route edges="1261359822#0 -1368285724 1103814254#0 1103814254#1 1103814254#2 1103814254#3 1103814254#4 -1103814252#1 -1103814252#0"/>
    </vehicle>
    <vehicle id="242" depart="1694.00" departLane="best" departSpeed="max">
        <route edges="-1101614168 142865623#0 142865623#1 155830603#0 1101614169 155830602#1 -338105122 142865622#1"/>
    </vehicle>
    <vehicle id="243" depart="1701.00" departLane="best" departSpeed="max">
        <route edges="-1182409051#1 -1103814255 -1103814254#5 -1103814252#1 1182408480"/>
    </vehicle>
    <vehicle id="244" depart="1708.00" departLane="best" departSpeed="max">
        <route edges="-1101614170 142865623#0 142865623#1 142865623#2 -142865622#3 1101614173"/>
    </vehicle>
    <vehicle id="245" depart="1715.00" departLane="best" departSpeed="max">
        <route edges="-1183856191 -142865623#0 1101614168"/>
    </vehicle>
    <vehicle id="249" depart="1743.00" departLane="best" departSpeed="max">
        <route edges="-1101614168 142865623#0 1183856191"/>
    </vehicle>
    <vehicle id="251" depart="1757.00" departLane="best" departSpeed="max">
        <route edges="142865554#0 1103814252#1 -1103814254#4 -1103814254#3 -1103814254#2 -1103814254#1 -1103814254#0 1368285724 1261359822#1 1177167585#0 1177167585#1 1177167585#2 1177167585#3 1177167585#4 1177167585#5 239773584#0 239773584#1"/>
    </vehicle>
    <vehicle id="254" depart="1778.00" departLane="best" departSpeed="max">
        <route edges="-1101614168 142865623#0 142865623#1 142865623#2 -142865622#3 -142865622#2 -142865622#1"/>
    </vehicle>
    <vehicle id="257" depart="1799.00" departLane="best" departSpeed="max">
        <route edges="142865622#0 338105122 155830602#3"/>
    </vehicle>
    <vehicle id="259" depart="1813.00" departLane="best" departSpeed="max">
        <route edges="142865623#0 142865623#1 142865623#2 -142865622#3 -142865622#2 -142865622#1 -142865622#0"/>
    </vehicle>
    <vehicle id="262" depart="1834.00" departLane="best" departSpeed="max">
        <route edges="-155830602#3 -338105122 142865622#1 142865622#2 142865622#3 142865622#4 155830601"/>
    </vehicle>
    <vehicle id="263" depart="1841.00" departLane="best" departSpeed="max">
        <route edges="799366215 1103814254#0 1103814254#1 1103814254#2"/>
    </vehicle>
    <vehicle id="271" depart="1897.00" departLane="best" departSpeed="max">
        <route edges="-338105122 142865622#1 142865622#2 1101614173"/>
    </vehicle>
    <vehicle id="274" depart="1918.00" departLane="best" departSpeed="max">
        <route edges="1368285724 1261359822#1 1177167585#0 1177167585#1 1177167585#2 1177167585#3 1177167585#4 1177167585#5 239773584#0 239773584#1 239773584#2 239773584#3 239773584#4"/>
    </vehicle>
    <vehicle id="277" depart="1939.00" departLane="best" departSpeed="max">
        <route edges="1103814254#4 -1103814252#1 1182408480"/>
    </vehicle>
    <vehicle id="283" depart="1981.00" departLane="best" departSpeed="max">
        <route edges="-338102722 -1103814252#0"/>
    </vehicle>
    <vehicle id="286" depart="2002.00" departLane="best" departSpeed="max">
        <route edges="142865622#0 338105122 -155830602#1"/>
    </vehicle>
    <vehicle id="288" depart="2016.00" departLane="best" departSpeed="max">
        <route edges="-1101614173 142865622#3 155830602#0 155830602#1"/>
    </vehicle>
    <vehicle id="289" depart="2023.00" departLane="best" departSpeed="max">
        <route edges="-338104758 -142865622#1 338105122 155830602#3"/>
    </vehicle>
    <vehicle id="290" depart="2030.00" departLane="best" departSpeed="max">
        <route edges="142865622#0 142865622#1 142865622#2"/>
    </vehicle>
    <vehicle id="293" depart="2051.00" departLane="best" departSpeed="max">
        <route edges="142865622#0 142865622#1 142865622#2 142865622#3 -142865623#2 -142865623#1 -142865623#0 1101614168"/>
    </vehicle>
    <vehicle id="294" depart="2058.00" departLane="best" departSpeed="max">
        <route edges="1261359822#0 -1368285724 1103814254#0 1103814254#1 1103814254#2 1103814254#3 1103814254#4 -1103814252#1 1182408480"/>
    </vehicle>
    <vehicle id="296" depart="2072.00" departLane="best" departSpeed="max">
        <route edges="142865623#0 142865623#1 155830603#0 155830603#1 1228550073 1101614168"/>
    </vehicle>
    <vehicle id="297" depart="2079.00" departLane="best" departSpeed="max">
        <route edges="142865622#0 142865622#1 142865622#2 142865622#3 -142865623#2 155830603#0 1101614169 -155830602#0"/>
    </vehicle>
    <vehicle id="298" depart="2086.00" departLane="best" departSpeed="max">
        <route edges="-142865622#4 -142865622#3 -142865622#2 -142865622#1 -142865622#0"/>
    </vehicle>
    <vehicle id="299" depart="2093.00" departLane="best" departSpeed="max">
        <route edges="-1183856191 142865623#1 142865623#2 -142865622#3 -142865622#2 -142865622#1 -142865622#0"/>
    </vehicle>
    <vehicle id="302" depart="2114.00" departLane="best" departSpeed="max">
        <route edges="-338104758 -142865622#1 338105122 155830602#3"/>
    </vehicle>
    <vehicle id="303" depart="2121.00" departLane="best" departSpeed="max">
        <route edges="799366215 1103814254#0 1103814254#1 1103814254#2 1103814254#3 1103814254#4 1103814254#5 1103814254#6 1182409051#1"/>
    </vehicle>
    <vehicle id="314" depart="2198.00" departLane="best" departSpeed="max">
        <route edges="142865785 1103814254#1 1103814254#2 1103814254#3"/>
    </vehicle>
    <vehicle id="316" depart="2212.00" departLane="best" departSpeed="max">
        <route edges="-1101614173 -142865622#2 -142865622#1"/>
    </vehicle>
    <vehicle id="320" depart="2240.00" departLane="best" departSpeed="max">
        <route edges="1103814254#1 1103814254#2 1103814254#3 1103814254#4 -1103814252#1 1182408480"/>
    </vehicle>
    <vehicle id="326" depart="2282.00" departLane="best" departSpeed="max">
        <route edges="-1182409051#1 -1103814255 -1103814254#5 -1103814254#4"/>
    </vehicle>
    <vehicle id="332" depart="2324.00" departLane="best" departSpeed="max">
        <route edges="142865784 -1103814254#1 -1103814254#0 1368285724 1261359822#1"/>
    </vehicle>
    <vehicle id="333" depart="2331.00" departLane="best" departSpeed="max">
        <route edges="142865554#0 1103814252#1 1103814254#5 338103118"/>
    </vehicle>
    <vehicle id="335" depart="2345.00" departLane="best" departSpeed="max">
        <route edges="142865554#0 1103814252#1 1103814254#5 338103118"/>
    </vehicle>
    <vehicle id="338" depart="2366.00" departLane="best" departSpeed="max">
        <route edges="142865623#0 1183856191"/>
    </vehicle>
    <vehicle id="339" depart="2373.00" departLane="best" departSpeed="max">
        <route edges="-155830602#3 -338105122 -142865622#0"/>
    </vehicle>
    <vehicle id="340" depart="2380.00" departLane="best" departSpeed="max">
        <route edges="142865622#0 142865622#1 142865622#2 142865622#3 142865622#4 155830601"/>
    </vehicle>
    <vehicle id="346" depart="2422.00" departLane="best" departSpeed="max">
        <route edges="328758436#7 1280803367 -142865622#4 -142865622#3 -142865622#2 -142865622#1 338105122"/>
    </vehicle>
    <vehicle id="348" depart="2436.00" departLane="best" departSpeed="max">
        <route edges="-1101614168 142865623#0 142865623#1 142865623#2 -142865622#3 -142865622#2 -142865622#1 338105122 155830602#3"/>
    </vehicle>
    <vehicle id="349" depart="2443.00" departLane="best" departSpeed="max">
        <route edges="-338104758 142865622#2 142865622#3"/>
    </vehicle>
    <vehicle id="352" depart="2464.00" departLane="best" departSpeed="max">
        <route edges="-338104758 142865622#2 142865622#3 -142865623#2 -142865623#1 -142865623#0 -1228550072"/>
    </vehicle>
    <vehicle id="359" depart="2513.00" departLane="best" departSpeed="max">
        <route edges="-155830603#0 142865623#2 -142865622#3 -142865622#2 338104758"/>
    </vehicle>
    <vehicle id="360" depart="2520.00" departLane="best" departSpeed="max">
        <route edges="-338102722 1103814252#1 1103814254#5 1103814254#6 1182409051#1"/>
    </vehicle>
    <vehicle id="362" depart="2534.00" departLane="best" departSpeed="max">
        <route edges="-1183856191 142865623#1 142865623#2 -142865622#3 1101614173"/>
    </vehicle>
    <vehicle id="367" depart="2569.00" departLane="best" departSpeed="max">
        <route edges="1261359822#0 -1368285724 1103814254#0 -142865785"/>
    </vehicle>
    <vehicle id="370" depart="2590.00" departLane="best" departSpeed="max">
        <route edges="799366215 1103814254#0 1103814254#1 1103814254#2 1103814254#3 1103814254#4 1103814254#5 338103118"/>
    </vehicle>
    <vehicle id="371" depart="2597.00" departLane="best" departSpeed="max">
        <route edges="-338104758 -142865622#1 -142865622#0"/>
    </vehicle>
    <vehicle id="372" depart="2604.00" departLane="best" departSpeed="max">
        <route edges="142865785 1103814254#1 1103814254#2 1103814254#3 1103814254#4 1103814254#5 1103814254#6 1182409051#1"/>
    </vehicle>
    <vehicle id="375" depart="2625.00" departLane="best" departSpeed="max">
        <route edges="799366215 1103814254#0 -142865785"/>
    </vehicle>
    <vehicle id="380" depart="2660.00" departLane="best" departSpeed="max">
        <route edges="-338102722 1103814252#1 1103814254#5 338103118"/>
    </vehicle>
    <vehicle id="382" depart="2674.00" departLane="best" departSpeed="max">
        <route edges="-155830602#3 -155830602#1 -1101614169 -155830603#0 -142865623#1 -142865623#0 1101614168"/>
    </vehicle>
    <vehicle id="384" depart="2688.00" departLane="best" departSpeed="max">
        <route edges="-338104758 -142865622#1 -142865622#0"/>
    </vehicle>
    <vehicle id="388" depart="2716.00" departLane="best" departSpeed="max">
        <route edges="-1183856191 142865623#1 142865623#2 142865622#4 155830601"/>
    </vehicle>
    <vehicle id="390" depart="2730.00" departLane="best" departSpeed="max">
        <route edges="142865784 1103814254#2 1103814254#3 1103814254#4 -1103814252#1 -1103814252#0"/>
    </vehicle>
    <vehicle id="391" depart="2737.00" departLane="best" departSpeed="max">
        <route edges="142865622#4 155830601"/>
    </vehicle>
    <vehicle id="393" depart="2751.00" departLane="best" departSpeed="max">
        <route edges="142865554#0 1103814252#1 -1103814254#4 -1103814254#3 -1103814254#2 -1103814254#1 -1103814254#0 1368285724 1261359822#1 1177167585#0 1177167585#1 1177167585#2 1177167585#3 1177167585#4 1177167585#5 239773584#0 239773584#1 239773584#2 239773584#3 239773584#4"/>
    </vehicle>
    <vehicle id="394" depart="2758.00" departLane="best" departSpeed="max">
        <route edges="799366215 1103814254#0 1103814254#1 1103814254#2 1103814254#3 1103814254#4 1103814254#5 1103814254#6 1182409051#1"/>
    </vehicle>
    <vehicle id="396" depart="2772.00" departLane="best" departSpeed="max">
        <route edges="1261359822#0 -1368285724 1103814254#0 1103814254#1 1103814254#2 1103814254#3 338101463"/>
    </vehicle>
    <vehicle id="398" depart="2786.00" departLane="best" departSpeed="max">
        <route edges="1103814254#1 1103814254#2 1103814254#3 1103814254#4 -1103814252#1 1182408480"/>
    </vehicle>
    <vehicle id="405" depart="2835.00" departLane="best" departSpeed="max">
        <route edges="142865622#0 338105122 155830602#3"/>
    </vehicle>
    <vehicle id="408" depart="2856.00" departLane="best" departSpeed="max">
        <route edges="328758436#0 328758436#2 328758436#3 328758436#4 328758436#5 328758436#6 328758436#7 1280803367 -142865622#4 -142865622#3 -142865622#2 -142865622#1 338105122"/>
    </vehicle>
    <vehicle id="414" depart="2898.00" departLane="best" departSpeed="max">
        <route edges="-155830602#3 -338105122 142865622#1 142865622#2 1101614173"/>
    </vehicle>
    <vehicle id="416" depart="2912.00" departLane="best" departSpeed="max">
        <route edges="1177167585#4 1177167585#5 239773584#0 239773584#1 239773584#2 239773584#3"/>
    </vehicle>
    <vehicle id="417" depart="2919.00" departLane="best" departSpeed="max">
        <route edges="-1182409051#1 -1103814255 -1103814254#5"/>
    </vehicle>
    <vehicle id="420" depart="2940.00" departLane="best" departSpeed="max">
        <route edges="-1182409051#1 -1103814255 -1103814254#5 -1103814252#1 1182408480"/>
    </vehicle>
    <vehicle id="423" depart="2961.00" departLane="best" departSpeed="max">
        <route edges="328758436#0 328758436#2 328758436#3 328758436#4 328758436#5 328758436#6 328758436#7 1280803367 155830601"/>
    </vehicle>
    <vehicle id="424" depart="2968.00" departLane="best" departSpeed="max">
        <route edges="-1182409051#1 -1103814255 -1103814254#5 -1103814254#4 -1103814254#3 -1103814254#2 -1103814254#1 -1103814254#0 1368285724 1261359822#1 1177167585#0 1177167585#1 1177167585#2 1177167585#3 1177167585#4 1177167585#5"/>
    </vehicle>
    <vehicle id="426" depart="2982.00" departLane="best" departSpeed="max">