<?xml version="1.0" encoding="UTF-8"?>

<!-- generated on 2026-01-08 15:27:35.914218 by randomTrips.py v1_18_0+0000-03ecfdea036
<configuration>
    <net-file value="C:\Users\91948\OneDrive\Desktop\Reinforcement_Signal_Optimizer\backend\app\sumo\network\hebbal.net.xml"/>
    <route-file value="C:\Users\91948\OneDrive\Desktop\Reinforcement_Signal_Optimizer\backend\app\sumo\network\routes_hebbal.rou.xml"/>
    <trip-attributes value="departLane=&quot;best&quot; departSpeed=&quot;max&quot;"/>
    <fringe-factor value="10"/>
    <min-distance value="50.0"/>
    <validate value="True"/>
    <period value="7.0"/>
</configuration>
-->

<!-- generated on 2026-01-08 15:27:35 by Eclipse SUMO duarouter Version 1.18.0
<configuration xmlns:xsi="http://www.w3.org/2001/XMLSchema-instance" xsi:noNamespaceSchemaLocation="http://sumo.dlr.de/xsd/duarouterConfiguration.xsd">

    <input>
        <net-file value="C:\Users\91948\OneDrive\Desktop\Reinforcement_Signal_Optimizer\backend\app\sumo\network\hebbal.net.xml"/>
        <route-files value="trips.trips.xml"/>
    </input>

    <output>
        <output-file value="C:\Users\91948\OneDrive\Desktop\Reinforcement_Signal_Optimizer\backend\app\sumo\network\routes_hebbal.rou.xml"/>
        <alternatives-output value="NUL"/>
    </output>

    <time>
        <begin value="0.0"/>
        <end value="3600.0"/>
    </time>

    <report>
        <no-warnings value="true"/>
        <ignore-errors value="true"/>
        <no-step-log value="true"/>
    </report>

</configuration>
-->

<routes xmlns:xsi="http://www.w3.org/2001/XMLSchema-instance" xsi:noNamespaceSchemaLocation="http://sumo.dlr.de/xsd/routes_file.xsd">
    <vehicle id="0" depart="0.00" departLane="best" departSpeed="max">
        <route edges="114817850 326557690#4 326557690#5 326557690#6 326557690#7 326557690#10 326557690#11 326557690#12 326557690#13 326557690#14 326557690#15 -1079689329"/>
    </vehicle>
    <vehicle id="1" depart="7.00" departLane="best" departSpeed="max">
        <route edges="-238185296 114817854#1 114817854#2 114817854#3 -326557690#16 -326557690#15 -326557690#14 -326557690#13 -326557690#12 -326557690#11 325929761#0 -1182399616"/>
    </vehicle>
    <vehicle id="2" depart="14.00" departLane="best" departSpeed="max">
        <route edges="1227941494 326557690#15 -238184282#1 -238184282#0 114817857#0 114817857#1 -238184275#3 1102785234 325929768#1 238184275#2 238184275#3"/>
    </vehicle>
    <vehicle id="3" depart="21.00" departLane="best" departSpeed="max">
        <route edges="326557690#0 326557690#2 326557690#3 326557690#4 326557690#5 326557690#6 326557690#7 326557690#10 326557690#11 326557690#12 326557690#13 -1102785242"/>
    </vehicle>
    <vehicle id="4" depart="28.00" departLane="best" departSpeed="max">
        <route edges="-667001220#1 -667001220#0 326557690#10 326557690#11 326557690#12 326557690#13 326557690#14 326557690#15 -238184282#1 -238184282#0 114817857#0 114817857#1 -238184275#3 -238184275#2 -325929768#1 -1102785234"/>
    </vehicle>
    <vehicle id="5" depart="35.00" departLane="best" departSpeed="max">
        <route edges="-238184277 -1429229202#1 -735056335#0"/>
    </vehicle>
    <vehicle id="6" depart="42.00" departLane="best" departSpeed="max">
        <route edges="-1102785234 238184275#3 -114817857#1 -114817857#0 238184281#4 -114817854#1"/>
    </vehicle>
    <vehicle id="7" depart="49.00" departLane="best" departSpeed="max">
        <route edges="114817854#0 114817854#1 114817854#2 114817854#3 -326557690#16 -326557690#15 -326557690#14 -326557690#13 -326557690#12 -326557690#11 -326557690#10 -326557690#7 -326557690#6 -326557690#5 -326557690#4 -326557690#3 -326557690#2 1102785245"/>
    </vehicle>
    <vehicle id="8" depart="56.00" departLane="best" departSpeed="max">
        <route edges="-238184278 326557690#2 326557690#3 326557690#4 326557690#5 326557690#6 326557690#7 326557690#10 326557690#11 326557690#12 326557690#13 326557690#14 326557690#15 -238184282#1 -995099260 114817854#3"/>
    </vehicle>
    <vehicle id="9" depart="63.00" departLane="best" departSpeed="max">
        <route edges="1433092893#1 326557690#10 326557690#11 326557690#12 326557690#13 326557690#14 326557690#15 -1079689329"/>
    </vehicle>
    <vehicle id="10" depart="70.00" departLane="best" departSpeed="max">
        <route edges="1433092893#0 1433092893#1 -326557690#7 -326557690#6 -326557690#5 -326557690#4 -326557690#3 -660094161 238184277"/>
    </vehicle>
    <vehicle id="11" depart="77.00" departLane="best" departSpeed="max">
        <route edges="-325929767 -326557690#12 -326557690#11 -326557690#10 -326557690#7 -326557690#6 -326557690#5 -326557690#4 -114817850"/>
    </vehicle>
    <vehicle id="12" depart="84.00" departLane="best" departSpeed="max">
        <route edges="667751249#0 667751249#1 326557690#2 326557690#3 326557690#4 326557690#5 326557690#6 326557690#7 326557690#10 326557690#11 326557690#12 326557690#13 -238184279#1 -238184279#0 -238184281#0"/>
    </vehicle>
    <vehicle id="13" depart="91.00" departLane="best" departSpeed="max">
        <route edges="-114817854#3 995099260 238184282#1 -326557690#15 -326557690#14 -1102785242"/>
    </vehicle>
    <vehicle id="14" depart="98.00" departLane="best" departSpeed="max">
        <route edges="325929768#0 -1102785234 238184275#3 114817857#2"/>
    </vehicle>
    <vehicle id="15" depart="105.00" departLane="best" departSpeed="max">
        <route edges="1433092893#0 1433092893#1 326557690#10 326557690#11 326557690#12 326557690#13 326557690#14 326557690#15 326557690#16 -114817854#3 -114817854#2 -114817854#1 238185296"/>
    </vehicle>
    <vehicle id="16" depart="112.00" departLane="best" departSpeed="max">
        <route edges="-326557690#17 -326557690#16 -326557690#15 -326557690#14 -326557690#13 -326557690#12 -326557690#11 -326557690#10 -326557690#7 -326557690#6 -326557690#5 1102785246"/>
    </vehicle>
    <vehicle id="17" depart="119.00" departLane="best" departSpeed="max">
        <route edges="238184281#2 114817857#0 114817857#1 114817857#2"/>
    </vehicle>
    <vehicle id="18" depart="126.00" departLane="best" departSpeed="max">
        <route edges="325929768#0 -1102785234 238184275#3 -114817857#1 -114817857#0 238184282#0 238184282#1 -326557690#15 -326557690#14 -326557690#13 -326557690#12 -326557690#11 -326557690#10 -326557690#7 1102785247"/>
    </vehicle>
    <vehicle id="19" depart="133.00" departLane="best" departSpeed="max">
        <route edges="1182399616 -325929761#0 326557690#11 326557690#12 326557690#13 -238184279#1 -1102785239"/>
    </vehicle>
    <vehicle id="20" depart="140.00" departLane="best" departSpeed="max">
        <route edges="-238184278 326557690#2 326557690#3 326557690#4 326557690#5 326557690#6 326557690#7 326557690#10 326557690#11 326557690#12 326557690#13 326557690#14 326557690#15 -238184282#1 -238184282#0 114817857#0 114817857#1 -238184275#3 -238184275#2 -238184275#1 -238184275#0"/>
    </vehicle>
    <vehicle id="21" depart="147.00" departLane="best" departSpeed="max">
        <route edges="-1102785246 326557690#5 326557690#6 326557690#7 326557690#10 325929761#0 -1182399616"/>
    </vehicle>
    <vehicle id="22" depart="154.00" departLane="best" departSpeed="max">
        <route edges="-114817857#2 -238184275#3 -238184275#2 -238184275#1 -238184275#0"/>
    </vehicle>
    <vehicle id="23" depart="161.00" departLane="best" departSpeed="max">
        <route edges="114817850 326557690#4 326557690#5 326557690#6 326557690#7 326557690#10 326557690#11 326557690#12 326557690#13 326557690#14 326557690#15 -238184282#1 -238184282#0 114817857#0 114817857#1 -238184275#3 1102785234 -325929768#0"/>
    </vehicle>
    <vehicle id="24" depart="168.00" departLane="best" departSpeed="max">
        <route edges="-326557690#16 -238184282#1 -238184282#0 238184281#4 -114817854#1 -114817847 -114817857#1"/>
    </vehicle>
    <vehicle id="25" depart="175.00" departLane="best" departSpeed="max">
        <route edges="-238185296 114817854#1 114817854#2 114817854#3 -326557690#16 -326557690#15 -326557690#14 -326557690#13 -326557690#12 -326557690#11 -326557690#10 -326557690#7 -326557690#6 667001221"/>
    </vehicle>
    <vehicle id="26" depart="182.00" departLane="best" departSpeed="max">
        <route edges="114817854#0 -114817847 114817857#2"/>
    </vehicle>
    <vehicle id="27" depart="189.00" departLane="best" departSpeed="max">
        <route edges="-1433092915 238184275#1 238184275#2 238184275#3 114817847 238185296"/>
    </vehicle>
    <vehicle id="28" depart="196.00" departLane="best" departSpeed="max">
        <route edges="-1433092915 238184275#1 -325929768#1 -325929768#0"/>
    </vehicle>
    <vehicle id="29" depart="203.00" departLane="best" departSpeed="max">
        <route edges="735056335#0 735056335#1 326557690#4 326557690#5 326557690#6 326557690#7 1382916440#0 1382916440#1 1382916439#2 1433092893#0 1433092893#1"/>
    </vehicle>
    <vehicle id="30" depart="210.00" departLane="best" departSpeed="max">
        <route edges="-995100109 238184277"/>
    </vehicle>
    <vehicle id="31" depart="217.00" departLane="best" departSpeed="max">
        <route edges="325929761#1 325929761#2"/>
    </vehicle>
    <vehicle id="32" depart="224.00" departLane="best" departSpeed="max">
        <route edges="-238184278 326557690#2 326557690#3 326557690#4 326557690#5 326557690#6 326557690#7 326557690#10 326557690#11 326557690#12 326557690#13 -238184279#1 -1102785239"/>
    </vehicle>
    <vehicle id="33" depart="231.00" departLane="best" departSpeed="max">
        <route edges="-325929761#2 -325929761#1 -325929761#0 -326557690#10 -326557690#7 -326557690#6 -326557690#5 -326557690#4 -735056335#1 -1429229202#0"/>
    </vehicle>
    <vehicle id="34" depart="238.00" departLane="best" departSpeed="max">
        <route edges="-238184277 -1429229202#1 735056335#1"/>
    </vehicle>
    <vehicle id="35" depart="245.00" departLane="best" departSpeed="max">
        <route edges="326557690#0 326557690#2 326557690#3 326557690#4 326557690#5 326557690#6 326557690#7 326557690#10 326557690#11 326557690#12 326557690#13 -238184279#1 -238184279#0 -238184281#0"/>
    </vehicle>
    <vehicle id="36" depart="252.00" departLane="best" departSpeed="max">
        <route edges="114817854#0 114817854#1 114817854#2 114817854#3 -326557690#16 -326557690#15 -326557690#14 -326557690#13 -326557690#12 -326557690#11 -326557690#10 -326557690#7 -326557690#6 -326557690#5 -326557690#4 -326557690#3 -326557690#2 -326557690#0"/>
    </vehicle>
    <vehicle id="37" depart="259.00" departLane="best" departSpeed="max">
        <route edges="326557690#15 326557690#16 -114817854#3 995099260 238184282#1 -326557690#15 -326557690#14 -326557690#13 -326557690#12 -326557690#11 -326557690#10 -326557690#7 -326557690#6 -326557690#5 -326557690#4 -326557690#3 -326557690#2 -667751249#1 -667751249#0"/>
    </vehicle>
    <vehicle id="38" depart="266.00" departLane="best" departSpeed="max">
        <route edges="-238184282#1 -995099260 114817854#3 -326557690#16 -326557690#15 -326557690#14 -326557690#13 -326557690#12 -326557690#11 -326557690#10 -326557690#7 -326557690#6 -326557690#5 -326557690#4 -735056335#1 -1429229202#0"/>
    </vehicle>
    <vehicle id="39" depart="273.00" departLane="best" departSpeed="max">
        <route edges="1102785234 325929768#1 238184275#2 238184275#3 -114817857#1 -114817857#0 238184282#0 238184282#1 -326557690#15 -326557690#14 -326557690#13 -326557690#12 -326557690#11 -326557690#10 -326557690#7 -326557690#6 -326557690#5 -326557690#4 -735056335#1 -1429229202#0"/>
    </vehicle>
    <vehicle id="40" depart="280.00" departLane="best" departSpeed="max">
        <route edges="1102785239 238184279#1 -326557690#13 -326557690#12 -326557690#11 -326557690#10 667001220#0 667001220#1"/>
    </vehicle>
    <vehicle id="42" depart="294.00" departLane="best" departSpeed="max">
        <route edges="995099260 238184282#1 -326557690#15 -326557690#14 -326557690#13 -326557690#12 -326557690#11 -326557690#10 -326557690#7 -326557690#6 -326557690#5 -326557690#4 -735056335#1 -735056335#0"/>
    </vehicle>
    <vehicle id="43" depart="301.00" departLane="best" departSpeed="max">
        <route edges="-114817854#2 -238184281#4 -238184281#2 -238184281#1 238184279#0 -1102785239"/>
    </vehicle>
    <vehicle id="44" depart="308.00" departLane="best" departSpeed="max">
        <route edges="-114817857#2 -114817857#1 1382916439#0 1382916439#2"/>
    </vehicle>
    <vehicle id="45" depart="315.00" departLane="best" departSpeed="max">
        <route edges="1429229202#0 735056335#1 326557690#4 326557690#5 326557690#6 326557690#7 326557690#10 326557690#11 326557690#12 326557690#13 326557690#14 326557690#15 326557690#16 -114817854#3 995099260 238184282#1 -326557690#15 -326557690#14 -326557690#13 -326557690#12 -326557690#11"/>
    </vehicle>
    <vehicle id="46" depart="322.00" departLane="best" departSpeed="max">
        <route edges="-1102785246 326557690#5 326557690#6 326557690#7 326557690#10 326557690#11 326557690#12 326557690#13 326557690#14 326557690#15 -238184282#1 -238184282#0 114817857#0 114817857#1 -238184275#3 1102785234 -325929768#0"/>
    </vehicle>
    <vehicle id="47" depart="329.00" departLane="best" departSpeed="max">
        <route edges="735056335#1 -326557690#3 -326557690#2 1102785245"/>
    </vehicle>
    <vehicle id="48" depart="336.00" departLane="best" departSpeed="max">
        <route edges="735056335#0 735056335#1 326557690#4 326557690#5 326557690#6 326557690#7 326557690#10 326557690#11 326557690#12 326557690#13 326557690#14 326557690#15 326557690#16 326557690#17"/>
    </vehicle>
    <vehicle id="49" depart="343.00" departLane="best" departSpeed="max">
        <route edges="-1102785233#1 238184275#1 238184275#2 238184275#3 -114817857#1 -114817857#0 238184281#4"/>
    </vehicle>
    <vehicle id="50" depart="350.00" departLane="best" departSpeed="max">
        <route edges="114817857#0 1382916439#0 1382916439#2 1433092893#0 1433092893#1 -326557690#7 -326557690#6 -326557690#5 -326557690#4 -326557690#3 -326557690#2 1102785245"/>
    </vehicle>
    <vehicle id="51" depart="357.00" departLane="best" departSpeed="max">
        <route edges="-238185296 -114817847 -114817857#1 1382916439#0 1382916439#2 1433092893#0 1433092893#1"/>
    </vehicle>
    <vehicle id="52" depart="364.00" departLane="best" departSpeed="max">
        <route edges="-114817857#2 -114817857#1 -114817857#0 238184281#4 114817854#2 114817854#3 -326557690#16"/>
    </vehicle>
    <vehicle id="53" depart="371.00" departLane="best" departSpeed="max">
        <route edges="-667001221 326557690#6 326557690#7 326557690#10 325929761#0 325929761#1 791724435"/>
    </vehicle>
    <vehicle id="54" depart="378.00" departLane="best" departSpeed="max">
        <route edges="326557690#0 326557690#2 326557690#3 -735056335#1 -1429229202#0"/>
    </vehicle>
    <vehicle id="55" depart="385.00" departLane="best" departSpeed="max">
        <route edges="-791724424 326557690#14 326557690#15 326557690#16 -114817854#3 -114817854#2 -114817854#1 -114817854#0"/>
    </vehicle>
    <vehicle id="56" depart="392.00" departLane="best" departSpeed="max">
        <route edges="326557690#14 326557690#15 326557690#16 -114817854#3 995099260 238184282#1 -326557690#15 -326557690#14 -326557690#13 -326557690#12 -326557690#11 -326557690#10 -326557690#7 -326557690#6 -326557690#5 -326557690#4 -735056335#1 1429229202#1 660094161 326557690#3 326557690#4 326557690#5"/>
    </vehicle>
    <vehicle id="57" depart="399.00" departLane="best" departSpeed="max">
        <route edges="-325929761#2 -325929761#1 -325929761#0 -326557690#10 1382916440#0 1382916440#1 1382916439#2 1433092893#0"/>
    </vehicle>
    <vehicle id="58" depart="406.00" departLane="best" departSpeed="max">
        <route edges="1102785244 667751249#1 326557690#2 326557690#3 -114817850"/>
    </vehicle>
    <vehicle id="59" depart="413.00" departLane="best" departSpeed="max">
        <route edges="1227941495 -326557690#15 -326557690#14 -326557690#13 -326557690#12 -326557690#11 -326557690#10 -326557690#7 -326557690#6 -326557690#5 -326557690#4 -326557690#3 -326557690#2 1102785245"/>
    </vehicle>
    <vehicle id="60" depart="420.00" departLane="best" departSpeed="max">
        <route edges="1429229202#0 735056335#1 -326557690#3 -326557690#2 1102785245"/>
    </vehicle>
    <vehicle id="61" depart="427.00" departLane="best" departSpeed="max">
        <route edges="-1102785233#1 238184275#1 238184275#2 238184275#3 -114817857#1 -114817857#0 -238184281#2 -238184281#1 -238184281#0"/>
    </vehicle>
    <vehicle id="62" depart="434.00" departLane="best" departSpeed="max">
        <route edges="-1102785233#1 238184275#1 238184275#2 238184275#3 -114817857#1 -114817857#0 238184282#0 238184282#1 -326557690#15 -326557690#14 -326557690#13 -326557690#12 -326557690#11 -326557690#10 -326557690#7 -326557690#6 667001221"/>
    </vehicle>
    <vehicle id="63" depart="441.00" departLane="best" departSpeed="max">
        <route edges="326557690#0 326557690#2 326557690#3 326557690#4 326557690#5 326557690#6 326557690#7 326557690#10 326557690#11 326557690#12 326557690#13 326557690#14 326557690#15"/>
    </vehicle>
    <vehicle id="64" depart="448.00" departLane="best" departSpeed="max">
        <route edges="-325929761#2 -325929761#1 -325929761#0 326557690#11 326557690#12 326557690#13 326557690#14 -1102785241"/>
    </vehicle>
    <vehicle id="65" depart="455.00" departLane="best" departSpeed="max">
        <route edges="326557690#0 326557690#2 326557690#3 326557690#4 326557690#5 326557690#6 326557690#7 326557690#10 325929761#0 325929761#1 791724435"/>
    </vehicle>
    <vehicle id="66" depart="462.00" departLane="best" departSpeed="max">
        <route edges="-114817847 -114817857#1 -114817857#0 238184282#0 238184282#1 -326557690#15 -326557690#14 -326557690#13 -326557690#12 -326557690#11 -326557690#10 -326557690#7 -326557690#6 -326557690#5 -326557690#4 -326557690#3 -326557690#2 -667751249#1"/>
    </vehicle>
    <vehicle id="67" depart="469.00" departLane="best" departSpeed="max">
        <route edges="-1102785246 326557690#5 326557690#6 326557690#7 326557690#10 325929761#0 325929761#1 325929761#2"/>
    </vehicle>
    <vehicle id="68" depart="476.00" departLane="best" departSpeed="max">
        <route edges="1382916439#0 1382916439#2 1433092893#0 1433092893#1 -326557690#7 -326557690#6 -326557690#5 -326557690#4 -326557690#3 -326557690#2 -667751249#1 -1102785244"/>
    </vehicle>
    <vehicle id="69" depart="483.00" departLane="best" departSpeed="max">
        <route edges="-735056335#1 1429229202#1 660094161 -326557690#2 1102785245"/>
    </vehicle>
    <vehicle id="70" depart="490.00" departLane="best" departSpeed="max">
        <route edges="-238184282#1 -995099260 114817854#3 -326557690#16 -326557690#15 -326557690#14 -326557690#13 -326557690#12 -326557690#11 -326557690#10 -326557690#7 -326557690#6 -326557690#5 -326557690#4 -735056335#1 1429229202#1 660094161 326557690#3 326557690#4 326557690#5"/>
    </vehicle>
    <vehicle id="71" depart="497.00" departLane="best" departSpeed="max">
        <route edges="-667001220#1 -667001220#0 326557690#10 325929761#0 -1182399616"/>
    </vehicle>
    <vehicle id="72" depart="504.00" departLane="best" departSpeed="max">
        <route edges="-995100109 660094161 326557690#3 326557690#4 326557690#5 326557690#6 326557690#7 326557690#10 326557690#11 326557690#12 326557690#13 326557690#14 326557690#15 326557690#16 -114817854#3 -114817854#2 -114817854#1 238185296"/>
    </vehicle>
    <vehicle id="73" depart="511.00" departLane="best" departSpeed="max">
        <route edges="-238184277 660094161 326557690#3 326557690#4 326557690#5 326557690#6 326557690#7 326557690#10 326557690#11 326557690#12 326557690#13 326557690#14 -238184280"/>
    </vehicle>
    <vehicle id="74" depart="518.00" departLane="best" departSpeed="max">
        <route edges="735056335#1 326557690#4 326557690#5 326557690#6 326557690#7 326557690#10 326557690#11 326557690#12 326557690#13 326557690#14 326557690#15 -238184282#1 -238184282#0 114817857#0 114817857#1 -238184275#3 -238184275#2 -238184275#1 1433092915"/>
    </vehicle>
    <vehicle id="75" depart="525.00" departLane="best" departSpeed="max">
        <route edges="-667001220#1 -1102785247 -326557690#6 -326557690#5 -326557690#4 -735056335#1"/>
    </vehicle>
    <vehicle id="76" depart="532.00" departLane="best" departSpeed="max">
        <route edges="-114817857#2 -114817857#1 -114817857#0 238184282#0 238184282#1 -326557690#15 -326557690#14 -326557690#13 -326557690#12 -326557690#11 325929761#0 -1182399616"/>
    </vehicle>
    <vehicle id="77" depart="539.00" departLane="best" departSpeed="max">
        <route edges="-325929767 326557690#13 326557690#14 326557690#15 -238184282#1 -995099260 114817854#3"/>
    </vehicle>
    <vehicle id="78" depart="546.00" departLane="best" departSpeed="max">
        <route edges="-238184278 326557690#2 326557690#3 326557690#4 326557690#5 326557690#6 326557690#7 326557690#10 325929761#0 -1182399616"/>
    </vehicle>
    <vehicle id="79" depart="553.00" departLane="best" departSpeed="max">
        <route edges="-1102785246 326557690#5 326557690#6 326557690#7 1382916440#0"/>
    </vehicle>
    <vehicle id="80" depart="560.00" departLane="best" departSpeed="max">
        <route edges="-238184278 326557690#2 326557690#3 326557690#4 326557690#5 326557690#6 1102785247 667001220#1"/>
    </vehicle>
    <vehicle id="81" depart="567.00" departLane="best" departSpeed="max">
        <route edges="325929768#0 -1102785234 238184275#3 -114817857#1 -114817857#0 238184282#0 238184282#1 -326557690#15 -1102785241"/>
    </vehicle>
    <vehicle id="82" depart="574.00" departLane="best" departSpeed="max">
        <route edges="-238184278 326557690#2 326557690#3 326557690#4 326557690#5 326557690#6 326557690#7 326557690#10 326557690#11 326557690#12 326557690#13 326557690#14 326557690#15 -238184282#1 -238184282#0 114817857#0 114817857#1 -238184275#3 -238184275#2 -238184275#1 1433092915"/>
    </vehicle>
    <vehicle id="83" depart="581.00" departLane="best" departSpeed="max">
        <route edges="-238184277 660094161 -326557690#2 -667751249#1 -1102785244"/>
    </vehicle>
    <vehicle id="84" depart="588.00" departLane="best" departSpeed="max">
        <route edges="660094161 326557690#3 326557690#4 1102785246"/>
    </vehicle>
    <vehicle id="86" depart="602.00" departLane="best" departSpeed="max">
        <route edges="1433092893#1 326557690#10 326557690#11 326557690#12 326557690#13 326557690#14 326557690#15 326557690#16 -114817854#3 -114817854#2 -114817854#1 -114817854#0"/>
    </vehicle>
    <vehicle id="87" depart="609.00" departLane="best" departSpeed="max">
        <route edges="-114817857#0 238184282#0 238184282#1 -326557690#15"/>
    </vehicle>
    <vehicle id="88" depart="616.00" departLane="best" departSpeed="max">
        <route edges="-667001220#1 -1102785247 -326557690#6 -326557690#5 -326557690#4 -326557690#3 -326557690#2 -667751249#1 -667751249#0"/>
    </vehicle>
    <vehicle id="89" depart="623.00" departLane="best" departSpeed="max">
        <route edges="1227941494 326557690#15 -238184282#1 -238184282#0 114817857#0 114817857#1 -238184275#3 1102785234 325929768#1 238184275#2"/>
    </vehicle>
    <vehicle id="90" depart="630.00" departLane="best" departSpeed="max">
        <route edges="735056335#0 735056335#1 326557690#4 326557690#5 326557690#6 326557690#7 326557690#10 326557690#11 326557690#12 326557690#13 -1102785242"/>
    </vehicle>
    <vehicle id="91" depart="637.00" departLane="best" departSpeed="max">
        <route edges="-326557690#3 -660094161 -1429229202#1 735056335#1 326557690#4 326557690#5 326557690#6 326557690#7 326557690#10 326557690#11 326557690#12 326557690#13 -238184279#1 -238184279#0 -238184281#0"/>
    </vehicle>
    <vehicle id="92" depart="644.00" departLane="best" departSpeed="max">
        <route edges="325929768#0 -1102785234 238184275#3 -114817857#1 -114817857#0 238184282#0 238184282#1 -326557690#15 -326557690#14 -326557690#13 -326557690#12 -326557690#11 -326557690#10 -326557690#7 -326557690#6 -326557690#5 -326557690#4 -735056335#1 -1429229202#0"/>
    </vehicle>
    <vehicle id="93" depart="651.00" departLane="best" departSpeed="max">
        <route edges="-238184275#3 1102785234 325929768#1 238184275#2 238184275#3 -114817857#1 -114817857#0 238184282#0 238184282#1 -326557690#15 -326557690#14 -326557690#13 -326557690#12 -326557690#11 -326557690#10 -326557690#7 -326557690#6"/>
    </vehicle>
    <vehicle id="94" depart="658.00" departLane="best" departSpeed="max">
        <route edges="-667001220#1 -667001220#0 326557690#10 326557690#11 326557690#12 326557690#13 326557690#14 326557690#15 -238184282#1 -238184282#0 114817857#0 114817857#1 -238184275#3 -238184275#2 -238184275#1 -238184275#0"/>
    </vehicle>
    <vehicle id="95" depart="665.00" departLane="best" departSpeed="max">
        <route edges="-238184279#1 -238184279#0 238184281#1 238184280 -326557690#14 -326557690#13 -326557690#12 -326557690#11 -326557690#10 -326557690#7 -326557690#6 667001221"/>
    </vehicle>
    <vehicle id="96" depart="672.00" departLane="best" departSpeed="max">
        <route edges="-667001220#1 -667001220#0 326557690#10 326557690#11 326557690#12 326557690#13 326557690#14 326557690#15 326557690#16 326557690#17"/>
    </vehicle>
    <vehicle id="97" depart="679.00" departLane="best" departSpeed="max">
        <route edges="-995100109 660094161 326557690#3 326557690#4 326557690#5 326557690#6 326557690#7 326557690#10 326557690#11 326557690#12 326557690#13 -238184279#1 -1102785239"/>
    </vehicle>
    <vehicle id="98" depart="686.00" departLane="best" departSpeed="max">
        <route edges="995099260 238184282#1 326557690#16 326557690#17"/>
    </vehicle>
    <vehicle id="99" depart="693.00" departLane="best" departSpeed="max">
        <route edges="735056335#0 735056335#1 326557690#4 326557690#5 667001221"/>
    </vehicle>
    <vehicle id="100" depart="700.00" departLane="best" departSpeed="max">
        <route edges="325929768#0 -1102785234 238184275#3 -114817857#1 -114817857#0 238184282#0 238184282#1 -326557690#15 -326557690#14 -326557690#13 -326557690#12 -326557690#11 -326557690#10 -326557690#7 -326557690#6 -326557690#5 -326557690#4 -114817850"/>
    </vehicle>
    <vehicle id="101" depart="707.00" departLane="best" departSpeed="max">
        <route edges="-791724424 -326557690#13 -326557690#12 -326557690#11 325929761#0 -1182399616"/>
    </vehicle>
    <vehicle id="103" depart="721.00" departLane="best" departSpeed="max">
        <route edges="-326557690#17 -326557690#16 -326557690#15 -326557690#14 -326557690#13 -326557690#12 -326557690#11 -326557690#10 -326557690#7 -326557690#6 -326557690#5 -326557690#4 -326557690#3 -660094161 995100109"/>
    </vehicle>
    <vehicle id="104" depart="728.00" departLane="best" departSpeed="max">
        <route edges="-238184282#1 -995099260 114817854#3 -326557690#16 -326557690#15 -326557690#14 -326557690#13 -326557690#12 -326557690#11 325929761#0 325929761#1 325929761#2"/>
    </vehicle>
    <vehicle id="105" depart="735.00" departLane="best" departSpeed="max">
        <route edges="-667001221 326557690#6 326557690#7 326557690#10 326557690#11 326557690#12 326557690#13 326557690#14 326557690#15 326557690#16 -114817854#3 995099260 238184282#1 -326557690#15 -326557690#14 -326557690#13 -326557690#12"/>
    </vehicle>
    <vehicle id="106" depart="742.00" departLane="best" departSpeed="max">
        <route edges="667751249#0 667751249#1 326557690#2 -660094161 995100109"/>
    </vehicle>
    <vehicle id="107" depart="749.00" departLane="best" departSpeed="max">
        <route edges="-995100109 660094161 326557690#3 326557690#4 326557690#5 326557690#6 326557690#7 326557690#10 326557690#11 326557690#12 326557690#13 326557690#14 -238184280 238184281#2 238184281#4"/>
    </vehicle>
    <vehicle id="108" depart="756.00" departLane="best" departSpeed="max">
        <route edges="-1382916439#2 -1382916439#0 114817857#1 -238184275#3 -238184275#2 -238184275#1 -238184275#0"/>
    </vehicle>
    <vehicle id="109" depart="763.00" departLane="best" departSpeed="max">
        <route edges="735056335#0 735056335#1 326557690#4 326557690#5 326557690#6 1102785247"/>
    </vehicle>
    <vehicle id="110" depart="770.00" departLane="best" departSpeed="max">
        <route edges="-995100109 660094161 326557690#3 326557690#4 326557690#5 326557690#6 326557690#7 326557690#10 326557690#11 326557690#12 326557690#13 326557690#14 326557690#15 326557690#16 -114817854#3 -114817854#2 -114817854#1 238185296"/>
    </vehicle>
    <vehicle id="111" depart="777.00" departLane="best" departSpeed="max">
        <route edges="-1102785246 326557690#5 326557690#6 326557690#7 326557690#10 326557690#11 326557690#12 326557690#13 326557690#14 326557690#15 -238184282#1 -238184282#0 114817857#0 114817857#1 114817847 114817854#1"/>
    </vehicle>
    <vehicle id="112" depart="784.00" departLane="best" departSpeed="max">
        <route edges="-791724424 326557690#14 326557690#15 326557690#16 326557690#17"/>
    </vehicle>
    <vehicle id="113" depart="791.00" departLane="best" departSpeed="max">
        <route edges="-1429229202#1 735056335#1 326557690#4 326557690#5 326557690#6 326557690#7 326557690#10 325929761#0 325929761#1 791724435"/>
    </vehicle>
    <vehicle id="114" depart="798.00" departLane="best" departSpeed="max">
        <route edges="-1102785246 326557690#5 326557690#6 326557690#7 326557690#10 326557690#11 326557690#12 326557690#13 326557690#14 326557690#15 326557690#16 -114817854#3 -114817854#2 -114817854#1 -114817854#0"/>
    </vehicle>
    <vehicle id="115" depart="805.00" departLane="best" departSpeed="max">
        <route edges="1102785244 667751249#1 326557690#2 326557690#3 326557690#4 326557690#5 326557690#6 326557690#7 326557690#10 326557690#11 326557690#12 326557690#13 326557690#14 326557690#15 -238184282#1 -238184282#0 114817857#0 114817857#1 -238184275#3 1102785234 325929768#1 238184275#2 238184275#3"/>
    </vehicle>