<?xml version="1.0" encoding="UTF-8"?>

<!-- generated on 2026-01-08 15:27:36.826874 by randomTrips.py v1_18_0+0000-03ecfdea036
<configuration>
    <net-file value="C:\Users\91948\OneDrive\Desktop\Reinforcement_Signal_Optimizer\backend\app\sumo\network\network.net.xml"/>
    <route-file value="C:\Users\91948\OneDrive\Desktop\Reinforcement_Signal_Optimizer\backend\app\sumo\network\routes_peak.rou.xml"/>
    <trip-attributes value="departLane=&quot;best&quot; departSpeed=&quot;max&quot;"/>
    <fringe-factor value="10"/>
    <min-distance value="50.0"/>
    <validate value="True"/>
    <period value="7.0"/>
</configuration>
-->

<!-- generated on 2026-01-08 15:27:36 by Eclipse SUMO duarouter Version 1.18.0
<configuration xmlns:xsi="http://www.w3.org/2001/XMLSchema-instance" xsi:noNamespaceSchemaLocation="http://sumo.dlr.de/xsd/duarouterConfiguration.xsd">

    <input>
        <net-file value="C:\Users\91948\OneDrive\Desktop\Reinforcement_Signal_Optimizer\backend\app\sumo\network\network.net.xml"/>
        <route-files value="trips.trips.xml"/>
    </input>

    <output>
        <output-file value="trips.trips.xml.tmp"/>
        <alternatives-output value="NUL"/>
        <write-trips value="true"/>
    </output>

    <time>
        <begin value="0.0"/>
        <end value="3600.0"/>
    </time>

    <report>
        <no-warnings value="true"/>
        <ignore-errors value="true"/>
        <no-step-log value="true"/>
    </report>

</configuration>
-->

<routes xmlns:xsi="http://www.w3.org/2001/XMLSchema-instance" xsi:noNamespaceSchemaLocation="http://sumo.dlr.de/xsd/routes_file.xsd">
    <trip id="0" depart="0.00" departLane="best" departSpeed="max" from="south_in" to="center_to_north"/>
    <trip id="1" depart="7.00" departLane="best" departSpeed="max" from="west_in" to="east_out"/>
    <trip id="2" depart="14.00" departLane="best" departSpeed="max" from="north_in" to="center_to_north"/>
    <trip id="3" depart="21.00" departLane="best" departSpeed="max" from="east_in" to="north_out"/>
    <trip id="4" depart="28.00" departLane="best" departSpeed="max" from="center_to_north" to="east_out"/>
    <trip id="5" depart="35.00" departLane="best" departSpeed="max" from="east_in" to="south_out"/>
    <trip id="6" depart="42.00" departLane="best" departSpeed="max" from="west_in" to="center_to_east"/>
    <trip id="7" depart="49.00" departLane="best" departSpeed="max" from="west_in" to="south_out"/>
    <trip id="8" depart="56.00" departLane="best" departSpeed="max" from="north_in" to="east_out"/>
    <trip id="9" depart="63.00" departLane="best" departSpeed="max" from="west_in" to="north_out"/>
    <trip id="10" depart="70.00" departLane="best" departSpeed="max" from="west_in" to="south_out"/>
    <trip id="11" depart="77.00" departLane="best" departSpeed="max" from="west_in" to="south_out"/>
    <trip id="12" depart="84.00" departLane="best" departSpeed="max" from="north_to_center" to="west_out"/>
    <trip id="13" depart="91.00" departLane="best" departSpeed="max" from="north_in" to="south_out"/>
    <trip id="14" depart="98.00" departLane="best" departSpeed="max" from="west_in" to="south_out"/>
    <trip id="15" depart="105.00" departLane="best" departSpeed="max" from="west_in" to="south_out"/>
    <trip id="16" depart="112.00" departLane="best" departSpeed="max" from="south_in" to="center_to_south"/>
    <trip id="17" depart="119.00" departLane="best" departSpeed="max" from="center_to_west" to="east_out"/>
    <trip id="18" depart="126.00" departLane="best" departSpeed="max" from="south_in" to="north_out"/>
    <trip id="19" depart="133.00" departLane="best" departSpeed="max" from="north_in" to="east_out"/>
    <trip id="20" depart="140.00" departLane="best" departSpeed="max" from="east_in" to="west_out"/>
    <trip id="21" depart="147.00" departLane="best" departSpeed="max" from="east_in" to="south_out"/>
    <trip id="22" depart="154.00" departLane="best" departSpeed="max" from="east_in" to="north_out"/>
    <trip id="23" depart="161.00" departLane="best" departSpeed="max" from="west_to_center" to="south_out"/>
    <trip id="24" depart="168.00" departLane="best" departSpeed="max" from="east_in" to="center_to_north"/>
    <trip id="25" depart="175.00" departLane="best" departSpeed="max" from="north_in" to="east_out"/>
    <trip id="26" depart="182.00" departLane="best" departSpeed="max" from="east_in" to="west_out"/>
    <trip id="27" depart="189.00" departLane="best" departSpeed="max" from="west_in" to="north_out"/>
    <trip id="28" depart="196.00" departLane="best" departSpeed="max" from="south_in" to="north_out"/>
    <trip id="29" depart="203.00" departLane="best" departSpeed="max" from="west_in" to="north_out"/>
    <trip id="30" depart="210.00" departLane="best" departSpeed="max" from="south_in" to="east_out"/>
    <trip id="31" depart="217.00" departLane="best" departSpeed="max" from="south_in" to="west_out"/>
    <trip id="32" depart="224.00" departLane="best" departSpeed="max" from="north_in" to="east_out"/>
    <trip id="33" depart="231.00" departLane="best" departSpeed="max" from="west_to_center" to="north_out"/>
    <trip id="34" depart="238.00" departLane="best" departSpeed="max" from="east_in" to="center_to_south"/>
    <trip id="35" depart="245.00" departLane="best" departSpeed="max" from="east_in" to="south_out"/>
    <trip id="36" depart="252.00" departLane="best" departSpeed="max" from="west_in" to="north_out"/>
    <trip id="37" depart="259.00" departLane="best" departSpeed="max" from="center_to_west" to="north_out"/>
    <trip id="38" depart="266.00" departLane="best" departSpeed="max" from="west_to_center" to="north_to_center"/>
    <trip id="39" depart="273.00" departLane="best" departSpeed="max" from="center_to_east" to="south_out"/>
    <trip id="40" depart="280.00" departLane="best" departSpeed="max" from="south_in" to="north_to_center"/>
    <trip id="41" depart="287.00" departLane="best" departSpeed="max" from="east_in" to="south_out"/>
    <trip id="42" depart="294.00" departLane="best" departSpeed="max" from="east_in" to="north_out"/>
    <trip id="43" depart="301.00" departLane="best" departSpeed="max" from="north_in" to="west_out"/>
    <trip id="44" depart="308.00" departLane="best" departSpeed="max" from="west_in" to="east_out"/>
    <trip id="45" depart="315.00" departLane="best" departSpeed="max" from="north_in" to="east_out"/>
    <trip id="46" depart="322.00" departLane="best" departSpeed="max" from="east_to_center" to="south_out"/>
    <trip id="47" depart="329.00" departLane="best" departSpeed="max" from="south_in" to="east_out"/>
    <trip id="48" depart="336.00" departLane="best" departSpeed="max" from="south_to_center" to="north_to_center"/>
    <trip id="49" depart="343.00" departLane="best" departSpeed="max" from="west_in" to="north_to_center"/>
    <trip id="50" depart="350.00" departLane="best" departSpeed="max" from="center_to_east" to="north_out"/>
    <trip id="51" depart="357.00" departLane="best" departSpeed="max" from="center_to_east" to="west_out"/>
    <trip id="52" depart="364.00" departLane="best" departSpeed="max" from="east_to_center" to="center_to_south"/>
    <trip id="53" depart="371.00" departLane="best" departSpeed="max" from="east_in" to="north_out"/>
    <trip id="54" depart="378.00" departLane="best" departSpeed="max" from="south_to_center" to="east_out"/>
    <trip id="55" depart="385.00" departLane="best" departSpeed="max" from="north_in" to="south_out"/>
    <trip id="56" depart="392.00" departLane="best" departSpeed="max" from="east_in" to="west_out"/>
    <trip id="57" depart="399.00" departLane="best" departSpeed="max" from="north_in" to="east_out"/>
    <trip id="58" depart="406.00" departLane="best" departSpeed="max" from="north_to_center" to="south_out"/>
    <trip id="59" depart="413.00" departLane="best" departSpeed="max" from="east_in" to="east_to_center"/>
    <trip id="60" depart="420.00" departLane="best" departSpeed="max" from="west_to_center" to="south_out"/>
    <trip id="61" depart="427.00" departLane="best" departSpeed="max" from="north_in" to="south_out"/>
    <trip id="62" depart="434.00" departLane="best" departSpeed="max" from="center_to_west" to="south_out"/>
    <trip id="63" depart="441.00" departLane="best" departSpeed="max" from="east_in" to="west_out"/>
    <trip id="64" depart="448.00" departLane="best" departSpeed="max" from="west_in" to="center_to_west"/>
    <trip id="65" depart="455.00" departLane="best" departSpeed="max" from="east_in" to="south_out"/>
    <trip id="66" depart="462.00" departLane="best" departSpeed="max" from="west_in" to="south_out"/>
    <trip id="67" depart="469.00" departLane="best" departSpeed="max" from="north_in" to="west_out"/>
    <trip id="68" depart="476.00" departLane="best" departSpeed="max" from="west_in" to="east_out"/>
    <trip id="69" depart="483.00" departLane="best" departSpeed="max" from="east_in" to="north_out"/>
    <trip id="70" depart="490.00" departLane="best" departSpeed="max" from="west_to_center" to="east_out"/>
    <trip id="71" depart="497.00" departLane="best" departSpeed="max" from="west_in" to="east_out"/>
    <trip id="72" depart="504.00" departLane="best" departSpeed="max" from="east_in" to="north_out"/>
    <trip id="73" depart="511.00" departLane="best" departSpeed="max" from="north_in" to="east_out"/>
    <trip id="74" depart="518.00" departLane="best" departSpeed="max" from="east_in" to="west_out"/>
    <trip id="75" depart="525.00" departLane="best" departSpeed="max" from="north_in" to="west_out"/>
    <trip id="76" depart="532.00" departLane="best" departSpeed="max" from="south_in" to="center_to_south"/>
    <trip id="77" depart="539.00" departLane="best" departSpeed="max" from="west_to_center" to="west_out"/>
    <trip id="78" depart="546.00" departLane="best" departSpeed="max" from="west_in" to="east_out"/>
    <trip id="79" depart="553.00" departLane="best" departSpeed="max" from="north_in" to="east_out"/>
    <trip id="80" depart="560.00" departLane="best" departSpeed="max" from="north_in" to="center_to_south"/>
    <trip id="81" depart="567.00" departLane="best" departSpeed="max" from="north_in" to="west_to_center"/>
    <trip id="82" depart="574.00" departLane="best" departSpeed="max" from="east_in" to="west_out"/>
    <trip id="83" depart="581.00" departLane="best" departSpeed="max" from="west_in" to="west_to_center"/>
    <trip id="84" depart="588.00" departLane="best" departSpeed="max" from="east_in" to="east_to_center"/>
    <trip id="85" depart="595.00" departLane="best" departSpeed="max" from="west_in" to="south_out"/>
    <trip id="86" depart="602.00" departLane="best" departSpeed="max" from="center_to_south" to="south_out"/>
    <trip id="87" depart="609.00" departLane="best" departSpeed="max" from="north_in" to="west_out"/>
    <trip id="88" depart="616.00" departLane="best" departSpeed="max" from="east_in" to="west_out"/>
    <trip id="89" depart="623.00" departLane="best" departSpeed="max" from="center_to_west" to="east_out"/>
    <trip id="90" depart="630.00" departLane="best" departSpeed="max" from="west_in" to="east_out"/>
    <trip id="91" depart="637.00" departLane="best" departSpeed="max" from="north_in" to="south_out"/>
    <trip id="92" depart="644.00" departLane="best" departSpeed="max" from="north_to_center" to="west_out"/>
    <trip id="93" depart="651.00" departLane="best" departSpeed="max" from="east_in" to="south_out"/>
    <trip id="94" depart="658.00" departLane="best" departSpeed="max" from="east_in" to="north_out"/>
    <trip id="95" depart="665.00" departLane="best" departSpeed="max" from="south_in" to="east_to_center"/>
    <trip id="96" depart="672.00" departLane="best" departSpeed="max" from="north_in" to="south_to_center"/>
    <trip id="97" depart="679.00" departLane="best" departSpeed="max" from="center_to_west" to="north_out"/>
    <trip id="98" depart="686.00" departLane="best" departSpeed="max" from="west_to_center" to="west_to_center"/>
    <trip id="99" depart="693.00" departLane="best" departSpeed="max" from="center_to_west" to="east_out"/>
    <trip id="100" depart="700.00" departLane="best" departSpeed="max" from="east_in" to="west_out"/>
    <trip id="101" depart="707.00" departLane="best" departSpeed="max" from="north_in" to="east_out"/>
    <trip id="102" depart="714.00" departLane="best" departSpeed="max" from="west_in" to="south_out"/>
    <trip id="103" depart="721.00" departLane="best" departSpeed="max" from="south_in" to="west_to_center"/>
    <trip id="104" depart="728.00" departLane="best" departSpeed="max" from="south_in" to="center_to_east"/>
    <trip id="105" depart="735.00" departLane="best" departSpeed="max" from="west_in" to="east_to_center"/>
    <trip id="106" depart="742.00" departLane="best" departSpeed="max" from="south_in" to="west_out"/>
    <trip id="107" depart="749.00" departLane="best" departSpeed="max" from="east_in" to="south_out"/>
    <trip id="108" depart="756.00" departLane="best" departSpeed="max" from="east_in" to="south_out"/>
    <trip id="109" depart="763.00" departLane="best" departSpeed="max" from="south_in" to="east_out"/>
    <trip id="110" depart="770.00" departLane="best" departSpeed="max" from="south_in" to="east_out"/>
    <trip id="111" depart="777.00" departLane="best" departSpeed="max" from="north_in" to="west_out"/>
    <trip id="112" depart="784.00" departLane="best" departSpeed="max" from="west_in" to="east_out"/>
    <trip id="113" depart="791.00" departLane="best" departSpeed="max" from="north_in" to="east_out"/>
    <trip id="114" depart="798.00" departLane="best" departSpeed="max" from="center_to_east" to="west_out"/>
    <trip id="115" depart="805.00" departLane="best" departSpeed="max" from="south_in" to="east_out"/>
    <trip id="116" depart="812.00" departLane="best" departSpeed="max" from="north_in" to="center_to_east"/>
    <trip id="117" depart="819.00" departLane="best" departSpeed="max" from="center_to_west" to="west_out"/>
    <trip id="118" depart="826.00" departLane="best" departSpeed="max" from="west_in" to="south_out"/>
    <trip id="119" depart="833.00" departLane="best" departSpeed="max" from="west_in" to="south_out"/>
    <trip id="120" depart="840.00" departLane="best" departSpeed="max" from="east_to_center" to="west_out"/>
    <trip id="121" depart="847.00" departLane="best" departSpeed="max" from="west_in" to="east_out"/>
    <trip id="122" depart="854.00" departLane="best" departSpeed="max" from="north_in" to="south_out"/>
    <trip id="123" depart="861.00" departLane="best" departSpeed="max" from="east_in" to="west_out"/>
    <trip id="124" depart="868.00" departLane="best" departSpeed="max" from="center_to_north" to="south_out"/>
    <trip id="125" depart="875.00" departLane="best" departSpeed="max" from="north_in" to="west_out"/>
    <trip id="126" depart="882.00" departLane="best" departSpeed="max" from="west_in" to="east_out"/>
    <trip id="127" depart="889.00" departLane="best" departSpeed="max" from="west_in" to="east_out"/>
    <trip id="128" depart="896.00" departLane="best" departSpeed="max" from="east_in" to="west_out"/>
    <trip id="129" depart="903.00" departLane="best" departSpeed="max" from="north_in" to="east_to_center"/>
    <trip id="130" depart="910.00" departLane="best" departSpeed="max" from="west_in" to="east_out"/>
    <trip id="131" depart="917.00" departLane="best" departSpeed="max" from="center_to_north" to="east_out"/>
    <trip id="132" depart="924.00" departLane="best" departSpeed="max" from="north_in" to="west_out"/>
    <trip id="133" depart="931.00" departLane="best" departSpeed="max" from="west_in" to="east_out"/>
    <trip id="134" depart="938.00" departLane="best" departSpeed="max" from="south_in" to="north_out"/>
    <trip id="135" depart="945.00" departLane="best" departSpeed="max" from="west_to_center" to="north_to_center"/>
    <trip id="136" depart="952.00" departLane="best" departSpeed="max" from="west_in" to="east_out"/>
    <trip id="137" depart="959.00" departLane="best" departSpeed="max" from="west_in" to="east_out"/>
    <trip id="138" depart="966.00" departLane="best" departSpeed="max" from="west_in" to="east_out"/>
    <trip id="139" depart="973.00" departLane="best" departSpeed="max" from="east_in" to="north_out"/>
    <trip id="140" depart="980.00" departLane="best" departSpeed="max" from="south_in" to="north_out"/>
    <trip id="141" depart="987.00" departLane="best" departSpeed="max" from="south_in" to="north_out"/>
    <trip id="142" depart="994.00" departLane="best" departSpeed="max" from="north_in" to="south_out"/>
    <trip id="143" depart="1001.00" departLane="best" departSpeed="max" from="east_in" to="south_out"/>
    <trip id="144" depart="1008.00" departLane="best" departSpeed="max" from="center_to_east" to="west_out"/>
    <trip id="145" depart="1015.00" departLane="best" departSpeed="max" from="north_to_center" to="south_out"/>
    <trip id="146" depart="1022.00" departLane="best" departSpeed="max" from="north_in" to="center_to_west"/>
    <trip id="147" depart="1029.00" departLane="best" departSpeed="max" from="south_in" to="north_out"/>
    <trip id="148" depart="1036.00" departLane="best" departSpeed="max" from="north_in" to="west_out"/>
    <trip id="149" depart="1043.00" departLane="best" departSpeed="max" from="south_in" to="east_to_center"/>
    <trip id="150" depart="1050.00" departLane="best" departSpeed="max" from="east_to_center" to="north_out"/>
    <trip id="151" depart="1057.00" departLane="best" departSpeed="max" from="north_in" to="east_to_center"/>
    <trip id="152" depart="1064.00" departLane="best" departSpeed="max" from="east_in" to="north_out"/>
    <trip id="153" depart="1071.00" departLane="best" departSpeed="max" from="west_in" to="south_out"/>
    <trip id="154" depart="1078.00" departLane="best" departSpeed="max" from="west_in" to="south_out"/>
    <trip id="155" depart="1085.00" departLane="best" departSpeed="max" from="east_to_center" to="south_out"/>
    <trip id="156" depart="1092.00" departLane="best" departSpeed="max" from="center_to_east" to="east_out"/>
    <trip id="157" depart="1099.00" departLane="best" departSpeed="max" from="north_in" to="south_out"/>
    <trip id="158" depart="1106.00" departLane="best" departSpeed="max" from="south_in" to="north_out"/>
    <trip id="159" depart="1113.00" departLane="best" departSpeed="max" from="north_in" to="east_out"/>
    <trip id="160" depart="1120.00" departLane="best" departSpeed="max" from="north_in" to="west_out"/>
    <trip id="161" depart="1127.00" departLane="best" departSpeed="max" from="west_in" to="east_out"/>
    <trip id="162" depart="1134.00" departLane="best" departSpeed="max" from="east_in" to="north_out"/>
    <trip id="163" depart="1141.00" departLane="best" departSpeed="max" from="south_in" to="north_out"/>
    <trip id="164" depart="1148.00" departLane="best" departSpeed="max" from="west_in" to="south_to_center"/>
    <trip id="165" depart="1155.00" departLane="best" departSpeed="max" from="south_in" to="east_out"/>
    <trip id="166" depart="1162.00" departLane="best" departSpeed="max" from="east_in" to="center_to_north"/>
    <trip id="167" depart="1169.00" departLane="best" departSpeed="max" from="east_in" to="north_out"/>
    <trip id="168" depart="1176.00" departLane="best" departSpeed="max" from="west_in" to="center_to_west"/>
    <trip id="169" depart="1183.00" departLane="best" departSpeed="max" from="north_in" to="south_out"/>
    <trip id="170" depart="1190.00" departLane="best" departSpeed="max" from="east_in" to="south_out"/>
    <trip id="171" depart="1197.00" departLane="best" departSpeed="max" from="north_in" to="east_out"/>
    <trip id="172" depart="1204.00" departLane="best" departSpeed="max" from="south_in" to="center_to_east"/>
    <trip id="173" depart="1211.00" departLane="best" departSpeed="max" from="south_to_center" to="south_to_center"/>
    <trip id="174" depart="1218.00" departLane="best" departSpeed="max" from="east_in" to="north_out"/>
    <trip id="175" depart="1225.00" departLane="best" departSpeed="max" from="east_in" to="west_out"/>
    <trip id="176" depart="1232.00" departLane="best" departSpeed="max" from="north_in" to="center_to_south"/>
    <trip id="177" depart="1239.00" departLane="best" departSpeed="max" from="east_in" to="west_out"/>
    <trip id="178" depart="1246.00" departLane="best" departSpeed="max" from="north_in" to="west_out"/>
    <trip id="179" depart="1253.00" departLane="best" departSpeed="max" from="south_in" to="west_to_center"/>
    <trip id="180" depart="1260.00" departLane="best" departSpeed="max" from="south_in" to="west_out"/>
    <trip id="181" depart="1267.00" departLane="best" departSpeed="max" from="west_in" to="south_out"/>
    <trip id="182" depart="1274.00" departLane="best" departSpeed="max" from="south_in" to="north_out"/>
    <trip id="183" depart="1281.00" departLane="best" departSpeed="max" from="west_in" to="south_out"/>
    <trip id="184" depart="1288.00" departLane="best" departSpeed="max" from="west_in" to="south_out"/>
    <trip id="185" depart="1295.00" departLane="best" departSpeed="max" from="north_in" to="east_out"/>
    <trip id="186" depart="1302.00" departLane="best" departSpeed="max" from="east_in" to="south_out"/>
    <trip id="187" depart="1309.00" departLane="best" departSpeed="max" from="south_to_center" to="north_to_center"/>
    <trip id="188" depart="1316.00" departLane="best" departSpeed="max" from="south_in" to="east_out"/>
    <trip id="189" depart="1323.00" departLane="best" departSpeed="max" from="center_to_west" to="east_out"/>
    <trip id="190" depart="1330.00" departLane="best" departSpeed="max" from="east_in" to="north_out"/>
    <trip id="191" depart="1337.00" departLane="best" departSpeed="max" from="north_to_center" to="east_out"/>
    <trip id="192" depart="1344.00" departLane="best" departSpeed="max" from="east_in" to="south_out"/>
    <trip id="193" depart="1351.00" departLane="best" departSpeed="max" from="south_in" to="center_to_west"/>
    <trip id="194" depart="1358.00" departLane="best" departSpeed="max" from="north_in" to="south_out"/>
    <trip id="195" depart="1365.00" departLane="best" departSpeed="max" from="north_in" to="east_out"/>
    <trip id="196" depart="1372.00" departLane="best" departSpeed="max" from="north_in" to="west_out"/>
    <trip id="197" depart="1379.00" departLane="best" departSpeed="max" from="west_in" to="south_to_center"/>
    <trip id="198" depart="1386.00" departLane="best" departSpeed="max" from="north_in" to="center_to_east"/>
    <trip id="199" depart="1393.00" departLane="best" departSpeed="max" from="north_in" to="south_to_center"/>
    <trip id="200" depart="1400.00" departLane="best" departSpeed="max" from="north_in" to="south_out"/>
    <trip id="201" depart="1407.00" departLane="best" departSpeed="max" from="north_in" to="center_to_north"/>
    <trip id="202" depart="1414.00" departLane="best" departSpeed="max" from="north_in" to="south_out"/>
    <trip id="203" depart="1421.00" departLane="best" departSpeed="max" from="north_in" to="east_out"/>
    <trip id="204" depart="1428.00" departLane="best" departSpeed="max" from="north_in" to="east_out"/>
    <trip id="205" depart="1435.00" departLane="best" departSpeed="max" from="south_in" to="center_to_north"/>
    <trip id="206" depart="1442.00" departLane="best" departSpeed="max" from="north_in" to="south_out"/>
    <trip id="207" depart="1449.00" departLane="best" departSpeed="max" from="center_to_north" to="south_out"/>
    <trip id="208" depart="1456.00" departLane="best" departSpeed="max" from="east_in" to="north_out"/>
    <trip id="209" depart="1463.00" departLane="best" departSpeed="max" from="center_to_south" to="north_out"/>
    <trip id="210" depart="1470.00" departLane="best" departSpeed="max" from="east_in" to="north_out"/>
    <trip id="211" depart="1477.00" departLane="best" departSpeed="max" from="south_to_center" to="north_out"/>
    <trip id="212" depart="1484.00" departLane="best" departSpeed="max" from="south_to_center" to="west_out"/>
    <trip id="213" depart="1491.00" departLane="best" departSpeed="max" from="east_in" to="center_to_west"/>
    <trip id="214" depart="1498.00" departLane="best" departSpeed="max" from="west_to_center" to="north_out"/>
    <trip id="215" depart="1505.00" departLane="best" departSpeed="max" from="south_in" to="west_out"/>
    <trip id="216" depart="1512.00" departLane="best" departSpeed="max" from="south_in" to="south_to_center"/>
    <trip id="217" depart="1519.00" departLane="best" departSpeed="max" from="west_in" to="east_out"/>
    <trip id="218" depart="1526.00" departLane="best" departSpeed="max" from="center_to_east" to="east_out"/>
    <trip id="219" depart="1533.00" departLane="best" departSpeed="max" from="east_in" to="south_out"/>
    <trip id="220" depart="1540.00" departLane="best" departSpeed="max" from="south_in" to="east_out"/>
    <trip id="221" depart="1547.00" departLane="best" departSpeed="max" from="south_in" to="south_to_center"/>
    <trip id="222" depart="1554.00" departLane="best" departSpeed="max" from="east_in" to="south_out"/>
    <trip id="223" depart="1561.00" departLane="best" departSpeed="max" from="south_in" to="east_out"/>
    <trip id="224" depart="1568.00" departLane="best" departSpeed="max" from="east_in" to="center_to_north"/>
    <trip id="225" depart="1575.00" departLane="best" departSpeed="max" from="east_to_center" to="south_out"/>
    <trip id="226" depart="1582.00" departLane="best" departSpeed="max" from="west_in" to="north_out"/>
    <trip id="227" depart="1589.00" departLane="best" departSpeed="max" from="south_in" to="center_to_west"/>
    <trip id="228" depart="1596.00" departLane="best" departSpeed="max" from="east_in" to="west_out"/>
    <trip id="229" depart="1603.00" departLane="best" departSpeed="max" from="west_in" to="south_out"/>
    <trip id="230" depart="1610.00" departLane="best" departSpeed="max" from="east_in" to="west_to_center"/>
    <trip id="231" depart="1617.00" departLane="best" departSpeed="max" from="west_in" to="north_out"/>
    <trip id="232" depart="1624.00" departLane="best" departSpeed="max" from="east_in" to="west_out"/>
    <trip id="233" depart="1631.00" departLane="best" departSpeed="max" from="south_in" to="west_out"/>
    <trip id="234" depart="1638.00" departLane="best" departSpeed="max" from="south_in" to="north_out"/>
    <trip id="235" depart="1645.00" departLane="best" departSpeed="max" from="south_in" to="west_out"/>
    <trip id="236" depart="1652.00" departLane="best" departSpeed="max" from="east_in" to="west_out"/>
    <trip id="237" depart="1659.00" departLane="best" departSpeed="max" from="north_to_center" to="north_out"/>
    <trip id="238" depart="1666.00" departLane="best" departSpeed="max" from="north_in" to="south_out"/>
    <trip id="239" depart="1673.00" departLane="best" departSpeed="max" from="east_in" to="west_out"/>
    <trip id="240" depart="1680.00" departLane="best" departSpeed="max" from="west_in" to="east_out"/>
    <trip id="241" depart="1687.00" departLane="best" departSpeed="max" from="west_in" to="east_out"/>
    <trip id="242" depart="1694.00" departLane="best" departSpeed="max" from="north_in" to="south_out"/>
    <trip id="243" depart="1701.00" departLane="best" departSpeed="max" from="north_in" to="center_to_north"/>
    <trip id="244" depart="1708.00" departLane="best" departSpeed="max" from="west_in" to="east_out"/>
    <trip id="245" depart="1715.00" departLane="best" departSpeed="max" from="east_in" to="west_out"/>
    <trip id="246" depart="1722.00" departLane="best" departSpeed="max" from="north_in" to="west_out"/>
    <trip id="247" depart="1729.00" departLane="best" departSpeed="max" from="south_in" to="east_out"/>
    <trip id="248" depart="1736.00" departLane="best" departSpeed="max" from="center_to_east" to="west_out"/>
    <trip id="249" depart="1743.00" departLane="best" departSpeed="max" from="east_in" to="south_out"/>
    <trip id="250" depart="1750.00" departLane="best" departSpeed="max" from="north_in" to="south_to_center"/>
    <trip id="251" depart="1757.00" departLane="best" departSpeed="max" from="north_in" to="west_out"/>
    <trip id="252" depart="1764.00" departLane="best" departSpeed="max" from="south_in" to="east_to_center"/>
    <trip id="253" depart="1771.00" departLane="best" departSpeed="max" from="south_in" to="north_out"/>
    <trip id="254" depart="1778.00" departLane="best" departSpeed="max" from="north_to_center" to="north_out"/>
    <trip id="255" depart="1785.00" departLane="best" departSpeed="max" from="south_in" to="north_out"/>
    <trip id="256" depart="1792.00" departLane="best" departSpeed="max" from="south_in" to="east_out"/>
    <trip id="257" depart="1799.00" departLane="best" departSpeed="max" from="north_to_center" to="south_to_center"/>
    <trip id="258" depart="1806.00" departLane="best" departSpeed="max" from="north_in" to="south_out"/>
    <trip id="259" depart="1813.00" departLane="best" departSpeed="max" from="west_in" to="north_to_center"/>
    <trip id="260" depart="1820.00" departLane="best" departSpeed="max" from="east_in" to="center_to_east"/>
    <trip id="261" depart="1827.00" departLane="best" departSpeed="max" from="north_to_center" to="east_out"/>
    <trip id="262" depart="1834.00" departLane="best" departSpeed="max" from="west_in" to="south_out"/>
    <trip id="263" depart="1841.00" departLane="best" departSpeed="max" from="south_in" to="east_out"/>
    <trip id="264" depart="1848.00" departLane="best" departSpeed="max" from="west_in" to="north_out"/>
    <trip id="265" depart="1855.00" departLane="best" departSpeed="max" from="west_in" to="south_out"/>
    <trip id="266" depart="1862.00" departLane="best" departSpeed="max" from="east_in" to="center_to_south"/>
    <trip id="267" depart="1869.00" departLane="best" departSpeed="max" from="west_in" to="north_out"/>