<?xml version="1.0" encoding="UTF-8"?>

<!-- generated on 2026-01-18T02:21:40.391727+05:30 by Eclipse SUMO netedit 1.25.0
<neteditConfiguration xmlns:xsi="http://www.w3.org/2001/XMLSchema-instance" xsi:noNamespaceSchemaLocation="http://sumo.dlr.de/xsd/neteditConfiguration.xsd">

    <input>
        <sumo-net-file value="C:\Users\Shashanka\Desktop\Traffic light Optimisation EL\silkboard.net.xml"/>
    </input>

    <output>
        <output-file value="C:\Users\Shashanka\Desktop\Traffic light Optimisation EL\silkboard.net.xml"/>
    </output>

    <processing>
        <geometry.min-radius.fix.railways value="false"/>
        <geometry.avoid-overlap value="false"/>
        <geometry.max-grade.fix value="false"/>
        <offset.disable-normalization value="true"/>
        <lefthand value="0"/>
    </processing>

    <junctions>
        <no-turnarounds value="true"/>
        <junctions.corner-detail value="5"/>
        <junctions.limit-turn-speed value="5.50"/>
        <rectangular-lane-cut value="0"/>
    </junctions>

    <pedestrian>
        <walkingareas value="0"/>
    </pedestrian>

</neteditConfiguration>
-->

<net version="1.20" junctionCornerDetail="5" limitTurnSpeed="5.50" avoidOverlap="0" xmlns:xsi="http://www.w3.org/2001/XMLSchema-instance" xsi:noNamespaceSchemaLocation="http://sumo.dlr.de/xsd/net_file.xsd">

    <location netOffset="-779956.91,-1418649.69" convBoundary="0.00,0.00,11911.70,11423.47" origBoundary="77.580048,12.819088,77.688657,12.924454" projParameter="+proj=utm +zone=43 +ellps=WGS84 +datum=WGS84 +units=m +no_defs"/>

    <type id="highway.primary" priority="12" numLanes="2" speed="27.78" disallow="tram rail_urban rail rail_electric rail_fast ship container cable_car subway aircraft wheelchair scooter drone" oneway="0"/>
    <type id="highway.primary_link" priority="7" numLanes="1" speed="22.22" disallow="tram rail_urban rail rail_electric rail_fast ship container cable_car subway aircraft wheelchair scooter drone" oneway="0"/>
    <type id="highway.residential" priority="3" numLanes="1" speed="13.89" disallow="tram rail_urban rail rail_electric rail_fast ship container cable_car subway aircraft wheelchair scooter drone" oneway="0"/>
    <type id="highway.tertiary" priority="10" numLanes="1" speed="22.22" disallow="tram rail_urban rail rail_electric rail_fast ship container cable_car subway aircraft wheelchair scooter drone" oneway="0"/>
    <type id="highway.trunk" priority="13" numLanes="2" speed="27.78" disallow="pedestrian bicycle tram rail_urban rail rail_electric rail_fast ship container cable_car subway aircraft wheelchair scooter drone" oneway="0"/>
    <type id="highway.trunk_link" priority="8" numLanes="1" speed="22.22" disallow="pedestrian bicycle tram rail_urban rail rail_electric rail_fast ship container cable_car subway aircraft wheelchair scooter drone" oneway="0"/>

    <edge id=":10081538827_0" function="internal">
        <lane id=":10081538827_0_0" index="0" disallow="pedestrian bicycle tram rail_urban rail rail_electric rail_fast ship container cable_car subway aircraft wheelchair scooter drone" speed="13.89" length="0.22" shape="4508.59,10738.18 4508.39,10738.11"/>
    </edge>
    <edge id=":10097182475_0" function="internal">
        <lane id=":10097182475_0_0" index="0" disallow="pedestrian bicycle tram rail_urban rail rail_electric rail_fast ship container cable_car subway aircraft wheelchair scooter drone" speed="16.67" length="20.38" shape="4487.11,10744.49 4506.44,10750.94"/>
        <lane id=":10097182475_0_1" index="1" disallow="pedestrian bicycle tram rail_urban rail rail_electric rail_fast ship container cable_car subway aircraft wheelchair scooter drone" speed="16.67" length="20.38" shape="4486.10,10747.52 4505.42,10753.97"/>
        <lane id=":10097182475_0_2" index="2" disallow="pedestrian bicycle tram rail_urban rail rail_electric rail_fast ship container cable_car subway aircraft wheelchair scooter drone" speed="16.67" length="20.38" shape="4485.08,10750.56 4504.41,10757.01"/>
    </edge>
    <edge id=":10097182475_3" function="internal">
        <lane id=":10097182475_3_0" index="0" disallow="pedestrian bicycle tram rail_urban rail rail_electric rail_fast ship container cable_car subway aircraft wheelchair scooter drone" speed="19.45" length="19.79" shape="4485.01,10753.91 4490.86,10754.74 4495.16,10753.87 4499.49,10753.03 4505.42,10753.97"/>
        <lane id=":10097182475_3_1" index="1" disallow="pedestrian bicycle tram rail_urban rail rail_electric rail_fast ship container cable_car subway aircraft wheelchair scooter drone" speed="19.45" length="19.79" shape="4485.90,10757.55 4491.28,10758.23 4495.17,10757.23 4499.06,10756.25 4504.41,10757.01"/>
    </edge>
    <edge id=":10118500634_0" function="internal">
        <lane id=":10118500634_0_0" index="0" disallow="bicycle tram rail_urban rail rail_electric rail_fast ship container cable_car subway aircraft wheelchair scooter drone" speed="22.22" length="15.41" shape="4745.88,10661.76 4749.15,10659.11 4752.07,10657.96 4754.74,10656.65 4757.25,10653.47"/>
        <lane id=":10118500634_0_1" index="1" disallow="bicycle tram rail_urban rail rail_electric rail_fast ship container cable_car subway aircraft wheelchair scooter drone" speed="22.22" length="15.41" shape="4747.36,10664.93 4751.06,10661.81 4754.30,10660.35 4757.25,10658.68 4760.08,10654.96"/>
    </edge>
    <edge id=":10118500634_2" function="internal">
        <lane id=":10118500634_2_0" index="0" disallow="tram rail_urban rail rail_electric rail_fast ship container cable_car subway aircraft wheelchair scooter drone" speed="22.22" length="15.86" shape="4749.79,10667.46 4757.25,10653.47"/>
        <lane id=":10118500634_2_1" index="1" disallow="tram rail_urban rail rail_electric rail_fast ship container cable_car subway aircraft wheelchair scooter drone" speed="22.22" length="15.86" shape="4752.61,10668.97 4760.08,10654.96"/>
    </edge>
    <edge id=":10153960137_0" function="internal">
        <lane id=":10153960137_0_0" index="0" disallow="pedestrian bicycle tram rail_urban rail rail_electric rail_fast ship container cable_car subway aircraft wheelchair scooter drone" speed="16.67" length="0.10" shape="4701.13,10806.68 4701.13,10806.68"/>
        <lane id=":10153960137_0_1" index="1" disallow="pedestrian bicycle tram rail_urban rail rail_electric rail_fast ship container cable_car subway aircraft wheelchair scooter drone" speed="16.67" length="0.10" shape="4701.84,10803.56 4701.84,10803.56"/>
        <lane id=":10153960137_0_2" index="2" disallow="pedestrian bicycle tram rail_urban rail rail_electric rail_fast ship container cable_car subway aircraft wheelchair scooter drone" speed="16.67" length="0.10" shape="4702.55,10800.44 4702.55,10800.44"/>
    </edge>
    <edge id=":10282796509_0" function="internal">
        <lane id=":10282796509_0_0" index="0" disallow="pedestrian bicycle tram rail_urban rail rail_electric rail_fast ship container cable_car subway aircraft wheelchair scooter drone" speed="5.71" length="11.66" shape="4644.92,10800.71 4649.62,10801.99 4652.34,10802.05 4653.07,10800.89 4651.81,10798.50"/>
    </edge>
    <edge id=":10282796509_1" function="internal">
        <lane id=":10282796509_1_0" index="0" disallow="pedestrian bicycle tram rail_urban rail rail_electric rail_fast ship container cable_car subway aircraft wheelchair scooter drone" speed="11.11" length="10.90" shape="4644.92,10800.71 4647.90,10801.71 4649.95,10802.37 4652.02,10802.93 4655.08,10803.66"/>
        <lane id=":10282796509_1_1" index="1" disallow="pedestrian bicycle tram rail_urban rail rail_electric rail_fast ship container cable_car subway aircraft wheelchair scooter drone" speed="11.11" length="10.90" shape="4643.91,10803.75 4646.98,10804.77 4649.08,10805.45 4651.22,10806.03 4654.37,10806.78"/>
        <lane id=":10282796509_1_2" index="2" disallow="pedestrian bicycle tram rail_urban rail rail_electric rail_fast ship container cable_car subway aircraft wheelchair scooter drone" speed="11.11" length="10.90" shape="4642.90,10806.78 4646.05,10807.84 4648.22,10808.53 4650.42,10809.13 4653.65,10809.90"/>
    </edge>
    <edge id=":10282796511_0" function="internal">
        <lane id=":10282796511_0_0" index="0" disallow="pedestrian bicycle tram rail_urban rail rail_electric rail_fast ship container cable_car subway aircraft wheelchair scooter drone" speed="5.29" length="6.82" shape="4629.94,10793.02 4629.65,10794.10 4630.26,10795.15 4631.80,10796.17 4634.25,10797.16"/>
        <lane id=":10282796511_0_1" index="1" disallow="pedestrian bicycle tram rail_urban rail rail_electric rail_fast ship container cable_car subway aircraft wheelchair scooter drone" speed="7.02" length="12.97" shape="4627.31,10791.21 4626.21,10793.91 4626.83,10796.31 4629.17,10798.40 4633.24,10800.19"/>
    </edge>
    <edge id=":10282796511_2" function="internal">
        <lane id=":10282796511_2_0" index="0" disallow="pedestrian bicycle tram rail_urban rail rail_electric rail_fast ship container cable_car subway aircraft wheelchair scooter drone" speed="25.00" length="16.27" shape="4627.31,10791.21 4625.01,10795.45 4624.15,10798.73 4623.33,10802.04 4621.16,10806.37"/>
        <lane id=":10282796511_2_1" index="1" disallow="pedestrian bicycle tram rail_urban rail rail_electric rail_fast ship container cable_car subway aircraft wheelchair scooter drone" speed="25.00" length="16.27" shape="4627.31,10791.21 4618.46,10804.64"/>
    </edge>
    <edge id=":10282796511_4" function="internal">
        <lane id=":10282796511_4_0" index="0" disallow="pedestrian bicycle tram rail_urban rail rail_electric rail_fast ship container cable_car subway aircraft wheelchair scooter drone" speed="13.89" length="16.98" shape="4618.37,10791.51 4634.25,10797.16"/>
        <lane id=":10282796511_4_1" index="1" disallow="pedestrian bicycle tram rail_urban rail rail_electric rail_fast ship container cable_car subway aircraft wheelchair scooter drone" speed="13.89" length="16.98" shape="4617.24,10794.50 4633.24,10800.19"/>
        <lane id=":10282796511_4_2" index="2" disallow="pedestrian bicycle tram rail_urban rail rail_electric rail_fast ship container cable_car subway aircraft wheelchair scooter drone" speed="13.89" length="16.98" shape="4616.10,10797.49 4632.22,10803.23"/>
    </edge>
    <edge id=":10282796511_7" function="internal">
        <lane id=":10282796511_7_0" index="0" disallow="pedestrian bicycle tram rail_urban rail rail_electric rail_fast ship container cable_car subway aircraft wheelchair scooter drone" speed="6.11" length="9.06" shape="4616.10,10797.49 4618.34,10798.73 4619.48,10800.34 4619.52,10802.31 4618.46,10804.64"/>
    </edge>
    <edge id=":10855370147_0" function="internal">
        <lane id=":10855370147_0_0" index="0" disallow="pedestrian bicycle tram rail_urban rail rail_electric rail_fast ship container cable_car subway aircraft wheelchair scooter drone" speed="8.19" length="4.10" shape="4651.69,10798.34 4650.92,10797.43 4650.25,10796.94 4649.44,10796.64 4648.27,10796.29"/>
    </edge>
    <edge id=":10855370147_1" function="internal">
        <lane id=":10855370147_1_0" index="0" disallow="pedestrian bicycle tram rail_urban rail rail_electric rail_fast ship container cable_car subway aircraft wheelchair scooter drone" speed="11.11" length="3.17" shape="4651.63,10796.94 4648.27,10796.29"/>
        <lane id=":10855370147_1_1" index="1" disallow="pedestrian bicycle tram rail_urban rail rail_electric rail_fast ship container cable_car subway aircraft wheelchair scooter drone" speed="11.11" length="3.17" shape="4652.36,10793.82 4649.24,10793.24"/>
        <lane id=":10855370147_1_2" index="2" disallow="pedestrian bicycle tram rail_urban rail rail_electric rail_fast ship container cable_car subway aircraft wheelchair scooter drone" speed="11.11" length="3.17" shape="4653.09,10790.71 4650.21,10790.19"/>
    </edge>
    <edge id=":1123386062_0" function="internal">
        <lane id=":1123386062_0_0" index="0" disallow="pedestrian bicycle tram rail_urban rail rail_electric rail_fast ship container cable_car subway aircraft wheelchair scooter drone" speed="12.50" length="20.59" shape="4567.83,10764.06 4561.87,10760.72 4557.45,10757.53 4553.88,10754.86 4550.48,10753.06"/>
    </edge>
    <edge id=":1123386062_1" function="internal">
        <lane id=":1123386062_1_0" index="0" disallow="pedestrian bicycle tram rail_urban rail rail_electric rail_fast ship container cable_car subway aircraft wheelchair scooter drone" speed="11.11" length="20.84" shape="4570.90,10752.28 4564.40,10754.04 4558.92,10754.55 4554.34,10754.11 4550.48,10753.06"/>
    </edge>
    <edge id=":11374929987_0" function="internal">
        <lane id=":11374929987_0_0" index="0" disallow="tram rail_urban rail rail_electric rail_fast ship container cable_car subway aircraft wheelchair scooter drone" speed="22.22" length="0.30" shape="4808.84,10817.87 4808.53,10817.82"/>
        <lane id=":11374929987_0_1" index="1" disallow="tram rail_urban rail rail_electric rail_fast ship container cable_car subway aircraft wheelchair scooter drone" speed="22.22" length="0.30" shape="4809.28,10814.70 4808.99,10814.66"/>
    </edge>
    <edge id=":12040966310_0" function="internal">
        <lane id=":12040966310_0_0" index="0" disallow="tram rail_urban rail rail_electric rail_fast ship container cable_car subway aircraft wheelchair scooter drone" speed="11.11" length="22.10" shape="4497.46,10930.36 4496.98,10936.51 4496.22,10941.01 4496.20,10945.48 4497.91,10951.53"/>
        <lane id=":12040966310_0_1" index="1" disallow="tram rail_urban rail rail_electric rail_fast ship container cable_car subway aircraft wheelchair scooter drone" speed="11.11" length="22.10" shape="4494.26,10930.33 4493.78,10936.58 4493.05,10941.36 4493.09,10946.23 4494.94,10952.71"/>
    </edge>
    <edge id=":12040966310_2" function="internal">
        <lane id=":12040966310_2_0" index="0" disallow="pedestrian tram rail_urban rail rail_electric rail_fast ship container cable_car subway aircraft wheelchair scooter drone" speed="11.11" length="23.74" shape="4490.82,10930.70 4490.54,10937.02 4489.92,10941.99 4490.03,10947.12 4491.96,10953.89"/>
        <lane id=":12040966310_2_1" index="1" disallow="pedestrian tram rail_urban rail rail_electric rail_fast ship container cable_car subway aircraft wheelchair scooter drone" speed="11.11" length="23.74" shape="4487.65,10931.42 4487.38,10937.79 4486.81,10942.87 4486.98,10948.13 4488.99,10955.07"/>
    </edge>
    <edge id=":12068001058_0" function="internal">
        <lane id=":12068001058_0_0" index="0" disallow="pedestrian bicycle tram rail_urban rail rail_electric rail_fast ship container cable_car subway aircraft wheelchair scooter drone" speed="22.22" length="2.26" shape="4659.22,10787.28 4657.93,10785.32"/>
        <lane id=":12068001058_0_1" index="1" disallow="pedestrian bicycle tram rail_urban rail rail_electric rail_fast ship container cable_car subway aircraft wheelchair scooter drone" speed="22.22" length="2.26" shape="4656.48,10788.93 4655.29,10787.12"/>
    </edge>
    <edge id=":12129307874_0" function="internal">
        <lane id=":12129307874_0_0" index="0" disallow="pedestrian bicycle tram rail_urban rail rail_electric rail_fast ship container cable_car subway aircraft wheelchair scooter drone" speed="16.67" length="9.28" shape="4741.33,10815.84 4732.28,10813.78"/>
        <lane id=":12129307874_0_1" index="1" disallow="pedestrian bicycle tram rail_urban rail rail_electric rail_fast ship container cable_car subway aircraft wheelchair scooter drone" speed="16.67" length="9.28" shape="4742.04,10812.72 4732.99,10810.66"/>
        <lane id=":12129307874_0_2" index="2" disallow="pedestrian bicycle tram rail_urban rail rail_electric rail_fast ship container cable_car subway aircraft wheelchair scooter drone" speed="16.67" length="9.28" shape="4742.76,10809.60 4733.70,10807.54"/>
    </edge>
    <edge id=":12129307874_3" function="internal">
        <lane id=":12129307874_3_0" index="0" disallow="pedestrian bicycle tram rail_urban rail rail_electric rail_fast ship container cable_car subway aircraft wheelchair scooter drone" speed="15.23" length="10.28" shape="4742.59,10805.73 4739.82,10807.31 4737.98,10809.22 4736.04,10810.61 4732.99,10810.66"/>
        <lane id=":12129307874_3_1" index="1" disallow="pedestrian bicycle tram rail_urban rail rail_electric rail_fast ship container cable_car subway aircraft wheelchair scooter drone" speed="13.85" length="10.28" shape="4742.59,10805.73 4740.00,10806.74 4738.18,10807.53 4736.35,10807.88 4733.70,10807.54"/>
    </edge>
    <edge id=":12196449734_0" function="internal">
        <lane id=":12196449734_0_0" index="0" disallow="pedestrian bicycle tram rail_urban rail rail_electric rail_fast ship container cable_car subway aircraft wheelchair scooter drone" speed="6.51" length="8.97" shape="4706.64,10711.33 4707.35,10708.98 4707.14,10706.96 4706.01,10705.27 4703.97,10703.92"/>
    </edge>
    <edge id=":12196449734_1" function="internal">
        <lane id=":12196449734_1_0" index="0" disallow="pedestrian bicycle tram rail_urban rail rail_electric rail_fast ship container cable_car subway aircraft wheelchair scooter drone" speed="22.22" length="10.86" shape="4706.64,10711.33 4711.66,10701.56"/>
        <lane id=":12196449734_1_1" index="1" disallow="pedestrian bicycle tram rail_urban rail rail_electric rail_fast ship container cable_car subway aircraft wheelchair scooter drone" speed="22.22" length="10.86" shape="4709.54,10712.68 4714.44,10703.13"/>
    </edge>
    <edge id=":12196449735_0" function="internal">
        <lane id=":12196449735_0_0" index="0" disallow="pedestrian bicycle tram rail_urban rail rail_electric rail_fast ship container cable_car subway aircraft wheelchair scooter drone" speed="5.90" length="7.02" shape="4682.17,10693.53 4679.91,10692.66 4678.09,10692.41 4676.73,10692.78 4675.82,10693.79"/>
    </edge>
    <edge id=":12196449735_1" function="internal">
        <lane id=":12196449735_1_0" index="0" disallow="pedestrian bicycle tram rail_urban rail rail_electric rail_fast ship container cable_car subway aircraft wheelchair scooter drone" speed="22.22" length="8.47" shape="4679.75,10686.28 4675.82,10693.79"/>
        <lane id=":12196449735_1_1" index="1" disallow="pedestrian bicycle tram rail_urban rail rail_electric rail_fast ship container cable_car subway aircraft wheelchair scooter drone" speed="22.22" length="8.47" shape="4676.92,10684.79 4672.98,10692.30"/>
    </edge>
    <edge id=":12464229060_0" function="internal">
        <lane id=":12464229060_0_0" index="0" disallow="tram rail_urban rail rail_electric rail_fast ship container cable_car subway aircraft wheelchair scooter drone" speed="22.22" length="0.10" shape="4794.70,10582.41 4794.70,10582.41"/>
        <lane id=":12464229060_0_1" index="1" disallow="tram rail_urban rail rail_electric rail_fast ship container cable_car subway aircraft wheelchair scooter drone" speed="22.22" length="0.10" shape="4797.54,10583.91 4797.54,10583.91"/>
    </edge>
    <edge id=":12697864643_0" function="internal">
        <lane id=":12697864643_0_0" index="0" disallow="pedestrian bicycle tram rail_urban rail rail_electric rail_fast ship container cable_car subway aircraft wheelchair scooter drone" speed="8.33" length="0.30" shape="4577.53,10749.88 4577.24,10749.99"/>
        <lane id=":12697864643_0_1" index="1" disallow="pedestrian bicycle tram rail_urban rail rail_electric rail_fast ship container cable_car subway aircraft wheelchair scooter drone" speed="8.33" length="0.30" shape="4576.44,10746.87 4576.15,10746.98"/>
    </edge>
    <edge id=":13074467237_0" function="internal">
        <lane id=":13074467237_0_0" index="0" disallow="tram rail_urban rail rail_electric rail_fast ship container cable_car subway aircraft wheelchair scooter drone" speed="22.22" length="0.10" shape="4461.60,10746.52 4461.60,10746.52"/>
        <lane id=":13074467237_0_1" index="1" disallow="tram rail_urban rail rail_electric rail_fast ship container cable_car subway aircraft wheelchair scooter drone" speed="22.22" length="0.10" shape="4460.64,10749.58 4460.64,10749.58"/>
    </edge>
    <edge id=":13074467238_0" function="internal">
        <lane id=":13074467238_0_0" index="0" disallow="pedestrian bicycle tram rail_urban rail rail_electric rail_fast ship container cable_car subway aircraft wheelchair scooter drone" speed="16.67" length="0.30" shape="4464.51,10736.95 4464.79,10737.04"/>
        <lane id=":13074467238_0_1" index="1" disallow="pedestrian bicycle tram rail_urban rail rail_electric rail_fast ship container cable_car subway aircraft wheelchair scooter drone" speed="16.67" length="0.30" shape="4463.50,10739.98 4463.78,10740.08"/>
        <lane id=":13074467238_0_2" index="2" disallow="pedestrian bicycle tram rail_urban rail rail_electric rail_fast ship container cable_car subway aircraft wheelchair scooter drone" speed="16.67" length="0.30" shape="4462.48,10743.02 4462.77,10743.11"/>
    </edge>
    <edge id=":1613147976_0" function="internal">
        <lane id=":1613147976_0_0" index="0" disallow="pedestrian bicycle tram rail_urban rail rail_electric rail_fast ship container cable_car subway aircraft wheelchair scooter drone" speed="16.67" length="0.39" shape="4545.97,10943.66 4545.60,10944.20"/>
        <lane id=":1613147976_0_1" index="1" disallow="pedestrian bicycle tram rail_urban rail rail_electric rail_fast ship container cable_car subway aircraft wheelchair scooter drone" speed="16.67" length="0.39" shape="4543.25,10941.96 4543.03,10942.29"/>
        <lane id=":1613147976_0_2" index="2" disallow="pedestrian bicycle tram rail_urban rail rail_electric rail_fast ship container cable_car subway aircraft wheelchair scooter drone" speed="16.67" length="0.39" shape="4540.54,10940.27 4540.47,10940.38"/>
    </edge>
    <edge id=":1613147978_0" function="internal">
        <lane id=":1613147978_0_0" index="0" disallow="pedestrian bicycle tram rail_urban rail rail_electric rail_fast ship container cable_car subway aircraft wheelchair scooter drone" speed="11.11" length="0.26" shape="4548.98,10945.72 4549.03,10945.65"/>
        <lane id=":1613147978_0_1" index="1" disallow="pedestrian bicycle tram rail_urban rail rail_electric rail_fast ship container cable_car subway aircraft wheelchair scooter drone" speed="11.11" length="0.26" shape="4551.56,10947.62 4551.71,10947.40"/>
        <lane id=":1613147978_0_2" index="2" disallow="pedestrian bicycle tram rail_urban rail rail_electric rail_fast ship container cable_car subway aircraft wheelchair scooter drone" speed="11.11" length="0.26" shape="4554.14,10949.51 4554.39,10949.15"/>
    </edge>
    <edge id=":1723790725_0" function="internal">
        <lane id=":1723790725_0_0" index="0" disallow="pedestrian bicycle tram rail_urban rail rail_electric rail_fast ship container cable_car subway aircraft wheelchair scooter drone" speed="16.67" length="0.29" shape="4586.64,10779.49 4586.95,10779.61"/>
        <lane id=":1723790725_0_1" index="1" disallow="pedestrian bicycle tram rail_urban rail rail_electric rail_fast ship container cable_car subway aircraft wheelchair scooter drone" speed="16.67" length="0.29" shape="4585.54,10782.50 4585.82,10782.60"/>
        <lane id=":1723790725_0_2" index="2" disallow="pedestrian bicycle tram rail_urban rail rail_electric rail_fast ship container cable_car subway aircraft wheelchair scooter drone" speed="16.67" length="0.29" shape="4584.45,10785.51 4584.68,10785.59"/>
    </edge>
    <edge id=":1723790753_0" function="internal">
        <lane id=":1723790753_0_0" index="0" disallow="pedestrian bicycle tram rail_urban rail rail_electric rail_fast ship container cable_car subway aircraft wheelchair scooter drone" speed="22.22" length="0.29" shape="4598.88,10841.17 4598.71,10841.43"/>
        <lane id=":1723790753_0_1" index="1" disallow="pedestrian bicycle tram rail_urban rail rail_electric rail_fast ship container cable_car subway aircraft wheelchair scooter drone" speed="22.22" length="0.29" shape="4596.18,10839.44 4596.03,10839.67"/>
    </edge>
    <edge id=":1723795924_0" function="internal">
        <lane id=":1723795924_0_0" index="0" disallow="pedestrian bicycle tram rail_urban rail rail_electric rail_fast ship container cable_car subway aircraft wheelchair scooter drone" speed="5.93" length="5.67" shape="4635.33,10792.20 4633.52,10791.77 4632.03,10791.73 4630.88,10792.10 4630.06,10792.86"/>
        <lane id=":1723795924_0_1" index="1" disallow="pedestrian bicycle tram rail_urban rail rail_electric rail_fast ship container cable_car subway aircraft wheelchair scooter drone" speed="7.58" length="9.77" shape="4636.30,10789.14 4633.41,10788.52 4630.97,10788.63 4628.97,10789.47 4627.42,10791.04"/>
    </edge>
    <edge id=":1723795924_2" function="internal">
        <lane id=":1723795924_2_0" index="0" disallow="pedestrian bicycle tram rail_urban rail rail_electric rail_fast ship container cable_car subway aircraft wheelchair scooter drone" speed="11.11" length="12.94" shape="4637.26,10786.09 4633.27,10785.86 4630.40,10787.20 4627.55,10788.45 4623.64,10787.97"/>
        <lane id=":1723795924_2_1" index="1" disallow="pedestrian bicycle tram rail_urban rail rail_electric rail_fast ship container cable_car subway aircraft wheelchair scooter drone" speed="11.11" length="12.94" shape="4637.26,10786.09 4633.62,10785.45 4630.98,10785.69 4628.37,10785.86 4624.81,10784.99"/>
        <lane id=":1723795924_2_2" index="2" disallow="pedestrian bicycle tram rail_urban rail rail_electric rail_fast ship container cable_car subway aircraft wheelchair scooter drone" speed="11.11" length="12.94" shape="4637.26,10786.09 4625.98,10782.01"/>
    </edge>
    <edge id=":2385133857_0" function="internal">
        <lane id=":2385133857_0_0" index="0" disallow="tram rail_urban rail rail_electric rail_fast ship container cable_car subway aircraft wheelchair scooter drone" speed="22.22" length="0.72" shape="4731.64,10718.98 4731.66,10718.66 4731.69,10718.44 4731.74,10718.22 4731.82,10717.91"/>
        <lane id=":2385133857_0_1" index="1" disallow="tram rail_urban rail rail_electric rail_fast ship container cable_car subway aircraft wheelchair scooter drone" speed="22.22" length="0.72" shape="4734.84,10719.15 4734.84,10719.04 4734.85,10718.97 4734.87,10718.90 4734.90,10718.79"/>
    </edge>
    <edge id=":2385133858_0" function="internal">
        <lane id=":2385133858_0_0" index="0" disallow="pedestrian bicycle tram rail_urban rail rail_electric rail_fast ship container cable_car subway aircraft wheelchair scooter drone" speed="7.23" length="4.31" shape="4748.36,10805.48 4747.20,10804.97 4746.33,10804.77 4745.44,10804.85 4744.23,10805.20"/>
    </edge>
    <edge id=":247989232_0" function="internal">
        <lane id=":247989232_0_0" index="0" disallow="pedestrian bicycle tram rail_urban rail rail_electric rail_fast ship container cable_car subway aircraft wheelchair scooter drone" speed="16.67" length="0.41" shape="4818.89,10838.39 4819.03,10838.41"/>
        <lane id=":247989232_0_1" index="1" disallow="pedestrian bicycle tram rail_urban rail rail_electric rail_fast ship container cable_car subway aircraft wheelchair scooter drone" speed="16.67" length="0.41" shape="4818.35,10841.54 4818.76,10841.60"/>
        <lane id=":247989232_0_2" index="2" disallow="pedestrian bicycle tram rail_urban rail rail_electric rail_fast ship container cable_car subway aircraft wheelchair scooter drone" speed="16.67" length="0.41" shape="4817.80,10844.70 4818.48,10844.79"/>
    </edge>
    <edge id=":2509423121_0" function="internal">
        <lane id=":2509423121_0_0" index="0" disallow="pedestrian bicycle tram rail_urban rail rail_electric rail_fast ship container cable_car subway aircraft wheelchair scooter drone" speed="22.22" length="10.84" shape="4667.28,10712.74 4666.06,10715.66 4665.34,10717.70 4664.73,10719.78 4663.82,10722.81"/>
        <lane id=":2509423121_0_1" index="1" disallow="pedestrian bicycle tram rail_urban rail rail_electric rail_fast ship container cable_car subway aircraft wheelchair scooter drone" speed="22.22" length="10.84" shape="4664.35,10711.45 4663.08,10714.47 4662.34,10716.58 4661.70,10718.73 4660.76,10721.86"/>
    </edge>
    <edge id=":2509423121_2" function="internal">
        <lane id=":2509423121_2_0" index="0" disallow="pedestrian bicycle tram rail_urban rail rail_electric rail_fast ship container cable_car subway aircraft wheelchair scooter drone" speed="10.40" length="10.27" shape="4664.35,10711.45 4662.93,10714.20 4661.36,10716.36 4659.62,10717.95 4657.72,10718.97"/>
        <lane id=":2509423121_2_1" index="1" disallow="pedestrian bicycle tram rail_urban rail rail_electric rail_fast ship container cable_car subway aircraft wheelchair scooter drone" speed="9.81" length="9.08" shape="4664.35,10711.45 4663.53,10712.49 4661.98,10713.58 4659.67,10714.74 4656.62,10715.96"/>
    </edge>
    <edge id=":2509423122_0" function="internal">
        <lane id=":2509423122_0_0" index="0" disallow="pedestrian bicycle tram rail_urban rail rail_electric rail_fast ship container cable_car subway aircraft wheelchair scooter drone" speed="6.88" length="9.00" shape="4695.26,10657.03 4694.52,10659.09 4694.66,10661.08 4695.67,10663.00 4697.56,10664.86"/>
        <lane id=":2509423122_0_1" index="1" disallow="pedestrian bicycle tram rail_urban rail rail_electric rail_fast ship container cable_car subway aircraft wheelchair scooter drone" speed="7.65" length="11.35" shape="4695.26,10657.03 4693.80,10660.30 4693.37,10663.12 4693.97,10665.47 4695.58,10667.37"/>
    </edge>
    <edge id=":2509423122_2" function="internal">
        <lane id=":2509423122_2_0" index="0" disallow="pedestrian bicycle tram rail_urban rail rail_electric rail_fast ship container cable_car subway aircraft wheelchair scooter drone" speed="22.22" length="13.43" shape="4695.26,10657.03 4688.90,10668.81"/>