<?xml version="1.0" encoding="UTF-8"?>

<!-- generated on 2026-01-19T14:26:46.990881+05:30 by Eclipse SUMO netconvert 1.25.0
<netconvertConfiguration xmlns:xsi="http://www.w3.org/2001/XMLSchema-instance" xsi:noNamespaceSchemaLocation="http://sumo.dlr.de/xsd/netconvertConfiguration.xsd">

    <input>
        <osm-files value="C:\Users\Shashanka\Desktop\Reinforcement_Signal_Optimizer_EL5\Reinforcement_Signal_Optimizer\backend\app\sumo\networks\osm\hosmat_junction.osm"/>
    </input>

    <output>
        <output-file value="C:\Users\Shashanka\Desktop\Reinforcement_Signal_Optimizer_EL5\Reinforcement_Signal_Optimizer\backend\app\sumo\networks\converted\hosmat_junction.net.xml"/>
    </output>

    <projection>
        <proj.utm value="true"/>
    </projection>

    <processing>
        <geometry.remove value="true"/>
        <roundabouts.guess value="true"/>
    </processing>

    <tls_building>
        <tls.discard-simple value="true"/>
        <tls.join value="true"/>
        <tls.guess-signals value="true"/>
    </tls_building>

    <ramp_guessing>
        <ramps.guess value="true"/>
    </ramp_guessing>

    <junctions>
        <junctions.join value="true"/>
    </junctions>

    <report>
        <no-warnings value="true"/>
    </report>

</netconvertConfiguration>
-->

<net version="1.20" junctionCornerDetail="5" limitTurnSpeed="5.50" xmlns:xsi="http://www.w3.org/2001/XMLSchema-instance" xsi:noNamespaceSchemaLocation="http://sumo.dlr.de/xsd/net_file.xsd">

    <location netOffset="-782746.54,-1433639.76" convBoundary="0.00,0.00,3225.28,2063.67" origBoundary="77.604205,12.955109,77.635861,12.975782" projParameter="+proj=utm +zone=43 +ellps=WGS84 +datum=WGS84 +units=m +no_defs"/>

    <type id="highway.cycleway" priority="1" numLanes="1" speed="5.56" allow="bicycle" oneway="0" width="2.00"/>
    <type id="highway.footway" priority="1" numLanes="1" speed="2.78" allow="pedestrian" oneway="1" width="2.00"/>
    <type id="highway.living_street" priority="2" numLanes="1" speed="2.78" disallow="tram rail_urban rail rail_electric rail_fast ship container cable_car subway aircraft wheelchair scooter drone" oneway="0"/>
    <type id="highway.path" priority="1" numLanes="1" speed="5.56" allow="pedestrian bicycle" oneway="0" width="2.00"/>
    <type id="highway.primary" priority="12" numLanes="2" speed="27.78" disallow="tram rail_urban rail rail_electric rail_fast ship container cable_car subway aircraft wheelchair scooter drone" oneway="0"/>
    <type id="highway.primary_link" priority="7" numLanes="1" speed="22.22" disallow="tram rail_urban rail rail_electric rail_fast ship container cable_car subway aircraft wheelchair scooter drone" oneway="0"/>
    <type id="highway.residential" priority="3" numLanes="1" speed="13.89" disallow="tram rail_urban rail rail_electric rail_fast ship container cable_car subway aircraft wheelchair scooter drone" oneway="0"/>
    <type id="highway.secondary" priority="11" numLanes="1" speed="27.78" disallow="tram rail_urban rail rail_electric rail_fast ship container cable_car subway aircraft wheelchair scooter drone" oneway="0"/>
    <type id="highway.service" priority="1" numLanes="1" speed="5.56" allow="pedestrian delivery bicycle" oneway="0"/>
    <type id="highway.steps" priority="1" numLanes="1" speed="1.39" allow="pedestrian" oneway="1" width="2.00"/>
    <type id="highway.tertiary" priority="10" numLanes="1" speed="22.22" disallow="tram rail_urban rail rail_electric rail_fast ship container cable_car subway aircraft wheelchair scooter drone" oneway="0"/>
    <type id="highway.tertiary_link" priority="5" numLanes="1" speed="22.22" disallow="tram rail_urban rail rail_electric rail_fast ship container cable_car subway aircraft wheelchair scooter drone" oneway="0"/>
    <type id="highway.unclassified" priority="4" numLanes="1" speed="13.89" disallow="tram rail_urban rail rail_electric rail_fast ship container cable_car subway aircraft wheelchair scooter drone" oneway="0"/>

    <edge id=":10003844045_0" function="internal">
        <lane id=":10003844045_0_0" index="0" disallow="tram rail_urban rail rail_electric rail_fast ship container cable_car subway aircraft wheelchair scooter drone" speed="3.65" length="4.67" shape="1819.69,1888.88 1818.34,1889.39 1817.46,1889.25 1817.04,1888.46 1817.09,1887.02"/>
    </edge>
    <edge id=":10006930172_0" function="internal">
        <lane id=":10006930172_0_0" index="0" disallow="tram rail_urban rail rail_electric rail_fast ship container cable_car subway aircraft wheelchair scooter drone" speed="13.89" length="11.39" shape="742.60,1171.50 742.64,1182.89"/>
    </edge>
    <edge id=":10006930172_1" function="internal">
        <lane id=":10006930172_1_0" index="0" allow="pedestrian delivery bicycle" speed="6.76" length="4.70" shape="742.60,1171.50 742.07,1176.17"/>
    </edge>
    <edge id=":10006930172_7" function="internal">
        <lane id=":10006930172_7_0" index="0" allow="pedestrian delivery bicycle" speed="6.76" length="10.34" shape="742.07,1176.17 740.40,1178.44 737.58,1178.32 733.61,1175.81"/>
    </edge>
    <edge id=":10006930172_2" function="internal">
        <lane id=":10006930172_2_0" index="0" allow="pedestrian delivery bicycle" speed="4.66" length="6.30" shape="735.64,1173.33 737.30,1174.38 738.48,1174.43 739.18,1173.48 739.40,1171.53"/>
    </edge>
    <edge id=":10006930172_3" function="internal">
        <lane id=":10006930172_3_0" index="0" allow="pedestrian delivery bicycle" speed="9.72" length="12.15" shape="735.64,1173.33 738.71,1176.09 740.91,1178.59 742.22,1180.86 742.64,1182.89"/>
    </edge>
    <edge id=":10006930172_4" function="internal">
        <lane id=":10006930172_4_0" index="0" allow="pedestrian delivery bicycle" speed="3.65" length="4.67" shape="735.64,1173.33 736.06,1174.71 735.86,1175.59 735.05,1175.95 733.61,1175.81"/>
    </edge>
    <edge id=":10006930172_5" function="internal">
        <lane id=":10006930172_5_0" index="0" allow="pedestrian delivery bicycle" speed="9.22" length="9.31" shape="739.44,1182.85 739.08,1181.56 737.99,1179.96 736.17,1178.04 733.61,1175.81"/>
    </edge>
    <edge id=":10006930172_6" function="internal">
        <lane id=":10006930172_6_0" index="0" disallow="tram rail_urban rail rail_electric rail_fast ship container cable_car subway aircraft wheelchair scooter drone" speed="13.89" length="11.33" shape="739.44,1182.85 739.40,1171.53"/>
    </edge>
    <edge id=":10006930184_0" function="internal">
        <lane id=":10006930184_0_0" index="0" allow="pedestrian delivery bicycle" speed="5.56" length="5.00" shape="416.45,1573.84 411.54,1574.81"/>
    </edge>
    <edge id=":10012687828_0" function="internal">
        <lane id=":10012687828_0_0" index="0" disallow="tram rail_urban rail rail_electric rail_fast ship container cable_car subway aircraft wheelchair scooter drone" speed="27.78" length="8.48" shape="868.43,1242.92 865.82,1243.59 863.98,1243.84 862.11,1243.91 859.40,1244.07"/>
        <lane id=":10012687828_0_1" index="1" disallow="tram rail_urban rail rail_electric rail_fast ship container cable_car subway aircraft wheelchair scooter drone" speed="27.78" length="8.48" shape="867.51,1239.85 865.09,1240.47 863.38,1240.69 861.65,1240.74 859.13,1240.88"/>
        <lane id=":10012687828_0_2" index="2" disallow="tram rail_urban rail rail_electric rail_fast ship container cable_car subway aircraft wheelchair scooter drone" speed="27.78" length="8.48" shape="866.59,1236.79 864.36,1237.35 862.78,1237.53 861.18,1237.57 858.86,1237.69"/>
    </edge>
    <edge id=":10012687828_3" function="internal">
        <lane id=":10012687828_3_0" index="0" disallow="tram rail_urban rail rail_electric rail_fast ship container cable_car subway aircraft wheelchair scooter drone" speed="6.98" length="6.28" shape="865.68,1233.72 863.77,1234.15 862.13,1234.20 860.77,1233.88 859.68,1233.18"/>
    </edge>
    <edge id=":10012687832_0" function="internal">
        <lane id=":10012687832_0_0" index="0" disallow="tram rail_urban rail rail_electric rail_fast ship container cable_car subway aircraft wheelchair scooter drone" speed="6.85" length="15.59" shape="853.68,1226.92 851.11,1223.34 848.57,1222.53 846.07,1224.49 843.58,1229.22"/>
    </edge>
    <edge id=":10012687832_1" function="internal">
        <lane id=":10012687832_1_0" index="0" disallow="tram rail_urban rail rail_electric rail_fast ship container cable_car subway aircraft wheelchair scooter drone" speed="11.76" length="11.82" shape="853.68,1226.92 851.66,1224.19 849.58,1222.13 848.18,1220.00 848.21,1217.05"/>
    </edge>
    <edge id=":10012687832_2" function="internal">
        <lane id=":10012687832_2_0" index="0" disallow="tram rail_urban rail rail_electric rail_fast ship container cable_car subway aircraft wheelchair scooter drone" speed="22.22" length="13.79" shape="851.29,1217.90 849.79,1221.05 847.64,1223.63 845.39,1226.17 843.58,1229.22"/>
    </edge>
    <edge id=":10012687832_3" function="internal">
        <lane id=":10012687832_3_0" index="0" disallow="tram rail_urban rail rail_electric rail_fast ship container cable_car subway aircraft wheelchair scooter drone" speed="3.65" length="1.30" shape="851.29,1217.90 850.31,1218.75"/>
    </edge>
    <edge id=":10012687832_6" function="internal">
        <lane id=":10012687832_6_0" index="0" disallow="tram rail_urban rail rail_electric rail_fast ship container cable_car subway aircraft wheelchair scooter drone" speed="3.65" length="3.37" shape="850.31,1218.75 850.20,1218.84 849.33,1219.02 848.66,1218.42 848.21,1217.05"/>
    </edge>
    <edge id=":10012687832_4" function="internal">
        <lane id=":10012687832_4_0" index="0" disallow="tram rail_urban rail rail_electric rail_fast ship container cable_car subway aircraft wheelchair scooter drone" speed="10.08" length="49.31" shape="847.69,1230.57 852.79,1212.89 853.81,1206.77 850.74,1212.21 843.58,1229.22"/>
    </edge>
    <edge id=":10012687832_5" function="internal">
        <lane id=":10012687832_5_0" index="0" disallow="tram rail_urban rail rail_electric rail_fast ship container cable_car subway aircraft wheelchair scooter drone" speed="22.22" length="13.60" shape="847.69,1230.57 848.20,1227.12 848.00,1223.83 847.77,1220.52 848.21,1217.05"/>
    </edge>
    <edge id=":10019795905_0" function="internal">
        <lane id=":10019795905_0_0" index="0" allow="pedestrian delivery bicycle" speed="5.13" length="5.12" shape="876.62,1137.96 875.20,1137.81 874.06,1138.11 873.22,1138.89 872.67,1140.13"/>
    </edge>
    <edge id=":10019795905_1" function="internal">
        <lane id=":10019795905_1_0" index="0" allow="pedestrian delivery bicycle" speed="6.84" length="10.32" shape="876.62,1137.96 873.99,1136.89 872.37,1135.24 871.74,1133.01 872.12,1130.19"/>
    </edge>
    <edge id=":10019795905_2" function="internal">
        <lane id=":10019795905_2_0" index="0" allow="pedestrian delivery bicycle" speed="3.65" length="4.67" shape="876.62,1137.96 875.65,1136.90 875.46,1136.02 876.04,1135.34 877.40,1134.86"/>
    </edge>
    <edge id=":10019795905_3" function="internal">
        <lane id=":10019795905_3_0" index="0" allow="pedestrian delivery bicycle" speed="5.01" length="5.04" shape="875.20,1131.06 875.01,1132.44 875.32,1133.53 876.11,1134.34 877.40,1134.86"/>
    </edge>
    <edge id=":10019795905_4" function="internal">
        <lane id=":10019795905_4_0" index="0" disallow="tram rail_urban rail rail_electric rail_fast ship container cable_car subway aircraft wheelchair scooter drone" speed="22.22" length="9.41" shape="875.20,1131.06 872.67,1140.13"/>
    </edge>
    <edge id=":10019795905_5" function="internal">
        <lane id=":10019795905_5_0" index="0" disallow="tram rail_urban rail rail_electric rail_fast ship container cable_car subway aircraft wheelchair scooter drone" speed="22.22" length="9.44" shape="869.58,1139.29 872.12,1130.19"/>
    </edge>
    <edge id=":10019795905_6" function="internal">
        <lane id=":10019795905_6_0" index="0" allow="pedestrian delivery bicycle" speed="6.93" length="3.24" shape="869.58,1139.29 870.69,1136.77 871.04,1136.44"/>
    </edge>
    <edge id=":10019795905_7" function="internal">
        <lane id=":10019795905_7_0" index="0" allow="pedestrian delivery bicycle" speed="6.93" length="6.95" shape="871.04,1136.44 872.36,1135.20 874.59,1134.56 877.40,1134.86"/>
    </edge>
    <edge id=":10019795906_0" function="internal">
        <lane id=":10019795906_0_0" index="0" allow="pedestrian delivery bicycle" speed="3.65" length="4.67" shape="917.72,1144.90 918.69,1145.96 918.88,1146.84 918.30,1147.52 916.94,1148.00"/>
    </edge>
    <edge id=":10019807734_0" function="internal">
        <lane id=":10019807734_0_0" index="0" allow="pedestrian delivery bicycle" speed="3.65" length="4.67" shape="831.17,1100.99 829.99,1101.82 829.10,1101.90 828.50,1101.24 828.19,1099.83"/>
    </edge>
    <edge id=":10019811267_0" function="internal">
        <lane id=":10019811267_0_0" index="0" allow="pedestrian delivery bicycle" speed="5.32" length="5.33" shape="883.35,1115.03 881.80,1114.91 880.58,1115.23 879.69,1116.00 879.12,1117.21"/>
    </edge>
    <edge id=":10019811267_1" function="internal">
        <lane id=":10019811267_1_0" index="0" allow="pedestrian delivery bicycle" speed="6.80" length="10.56" shape="883.35,1115.03 880.59,1114.05 878.88,1112.44 878.22,1110.18 878.60,1107.28"/>
    </edge>
    <edge id=":10019811267_2" function="internal">
        <lane id=":10019811267_2_0" index="0" allow="pedestrian delivery bicycle" speed="3.65" length="4.67" shape="883.35,1115.03 882.33,1114.01 882.09,1113.14 882.64,1112.44 883.97,1111.89"/>
    </edge>
    <edge id=":10019811267_3" function="internal">
        <lane id=":10019811267_3_0" index="0" allow="pedestrian delivery bicycle" speed="4.96" length="5.10" shape="881.68,1108.15 881.50,1109.55 881.81,1110.64 882.64,1111.42 883.97,1111.89"/>
    </edge>
    <edge id=":10019811267_4" function="internal">
        <lane id=":10019811267_4_0" index="0" disallow="tram rail_urban rail rail_electric rail_fast ship container cable_car subway aircraft wheelchair scooter drone" speed="22.22" length="9.42" shape="881.68,1108.15 879.12,1117.21"/>
    </edge>
    <edge id=":10019811267_5" function="internal">
        <lane id=":10019811267_5_0" index="0" disallow="tram rail_urban rail rail_electric rail_fast ship container cable_car subway aircraft wheelchair scooter drone" speed="22.22" length="9.42" shape="876.04,1116.34 878.60,1107.28"/>
    </edge>
    <edge id=":10019811267_6" function="internal">
        <lane id=":10019811267_6_0" index="0" allow="pedestrian delivery bicycle" speed="7.07" length="3.11" shape="876.04,1116.34 877.14,1113.92 877.48,1113.61"/>
    </edge>
    <edge id=":10019811267_7" function="internal">
        <lane id=":10019811267_7_0" index="0" allow="pedestrian delivery bicycle" speed="7.07" length="7.08" shape="877.48,1113.61 878.83,1112.38 881.11,1111.70 883.97,1111.89"/>
    </edge>
    <edge id=":10019811268_0" function="internal">
        <lane id=":10019811268_0_0" index="0" allow="pedestrian delivery bicycle" speed="3.65" length="4.67" shape="918.09,1118.62 919.11,1119.64 919.35,1120.50 918.80,1121.21 917.47,1121.76"/>
    </edge>
    <edge id=":10019834946_0" function="internal">
        <lane id=":10019834946_0_0" index="0" allow="bicycle" speed="5.56" length="6.94" shape="1640.84,1724.09 1642.33,1725.22 1643.18,1726.58 1643.40,1728.17 1642.98,1729.99"/>
    </edge>
    <edge id=":10019834946_1" function="internal">
        <lane id=":10019834946_1_0" index="0" allow="bicycle" speed="3.92" length="2.31" shape="1639.99,1728.85 1640.13,1728.24 1640.06,1727.71 1639.77,1727.26 1639.28,1726.89"/>
    </edge>
    <edge id=":10019834946_2" function="internal">
        <lane id=":10019834946_2_0" index="0" allow="pedestrian delivery bicycle" speed="3.65" length="4.67" shape="1639.99,1728.85 1641.17,1728.02 1642.06,1727.93 1642.66,1728.58 1642.98,1729.99"/>
    </edge>
    <edge id=":10019836594_0" function="internal">
        <lane id=":10019836594_0_0" index="0" allow="bicycle" speed="5.56" length="6.17" shape="1644.73,1608.25 1643.44,1608.14 1642.20,1608.60 1641.00,1609.63 1639.85,1611.22"/>
    </edge>
    <edge id=":10019836594_1" function="internal">
        <lane id=":10019836594_1_0" index="0" allow="pedestrian delivery bicycle" speed="5.56" length="9.61" shape="1644.73,1608.25 1635.52,1605.51"/>
    </edge>
    <edge id=":10019836594_2" function="internal">
        <lane id=":10019836594_2_0" index="0" allow="pedestrian delivery bicycle" speed="3.65" length="4.67" shape="1644.73,1608.25 1643.81,1607.14 1643.65,1606.26 1644.26,1605.60 1645.64,1605.18"/>
    </edge>
    <edge id=":10019836594_3" function="internal">
        <lane id=":10019836594_3_0" index="0" allow="pedestrian delivery bicycle" speed="5.56" length="9.60" shape="1636.44,1602.44 1645.64,1605.18"/>
    </edge>
    <edge id=":10019836594_4" function="internal">
        <lane id=":10019836594_4_0" index="0" allow="bicycle" speed="5.56" length="11.50" shape="1636.44,1602.44 1639.41,1603.81 1640.97,1605.73 1641.12,1608.20 1639.85,1611.22"/>
    </edge>
    <edge id=":10019836594_5" function="internal">
        <lane id=":10019836594_5_0" index="0" allow="pedestrian delivery bicycle" speed="3.65" length="4.67" shape="1636.44,1602.44 1637.36,1603.55 1637.51,1604.43 1636.90,1605.08 1635.52,1605.51"/>
    </edge>
    <edge id=":10019836594_6" function="internal">
        <lane id=":10019836594_6_0" index="0" allow="bicycle" speed="4.82" length="5.33" shape="1637.11,1609.58 1637.69,1608.18 1637.63,1607.03 1636.90,1606.14 1635.52,1605.51"/>
    </edge>
    <edge id=":10019836594_7" function="internal">
        <lane id=":10019836594_7_0" index="0" allow="bicycle" speed="5.56" length="10.41" shape="1637.11,1609.58 1638.96,1607.10 1641.00,1605.54 1643.23,1604.90 1645.64,1605.18"/>
    </edge>
    <edge id=":10019836594_8" function="internal">
        <lane id=":10019836594_8_0" index="0" allow="bicycle" speed="3.65" length="4.67" shape="1637.11,1609.58 1638.41,1608.96 1639.30,1609.03 1639.78,1609.78 1639.85,1611.22"/>
    </edge>
    <edge id=":10019836596_0" function="internal">
        <lane id=":10019836596_0_0" index="0" allow="bicycle" speed="3.65" length="4.67" shape="1608.72,1681.73 1608.28,1683.11 1607.63,1683.72 1606.75,1683.56 1605.64,1682.63"/>
    </edge>
    <edge id=":10019837169_0" function="internal">
        <lane id=":10019837169_0_0" index="0" allow="bicycle" speed="5.56" length="8.86" shape="1516.62,1531.01 1516.11,1533.59 1515.81,1535.36 1515.61,1537.15 1515.38,1539.77"/>
    </edge>
    <edge id=":10019837169_1" function="internal">
        <lane id=":10019837169_1_0" index="0" allow="bicycle" speed="5.56" length="9.89" shape="1516.62,1531.01 1515.74,1533.49 1514.24,1535.16 1512.13,1536.04 1509.40,1536.12"/>
    </edge>
    <edge id=":10019837169_2" function="internal">
        <lane id=":10019837169_2_0" index="0" allow="pedestrian delivery bicycle" speed="3.65" length="4.67" shape="1516.62,1531.01 1515.60,1532.03 1514.74,1532.26 1514.03,1531.71 1513.49,1530.37"/>
    </edge>
    <edge id=":10019837169_3" function="internal">
        <lane id=":10019837169_3_0" index="0" allow="bicycle" speed="5.23" length="5.07" shape="1509.75,1532.94 1511.16,1532.90 1512.26,1532.46 1513.03,1531.62 1513.49,1530.37"/>
    </edge>
    <edge id=":10019837169_4" function="internal">
        <lane id=":10019837169_4_0" index="0" allow="bicycle" speed="5.56" length="10.05" shape="1509.75,1532.94 1512.41,1533.61 1514.24,1534.97 1515.23,1537.03 1515.38,1539.77"/>
    </edge>
    <edge id=":10019837169_5" function="internal">
        <lane id=":10019837169_5_0" index="0" allow="bicycle" speed="3.65" length="4.67" shape="1509.75,1532.94 1510.85,1533.86 1511.17,1534.70 1510.68,1535.45 1509.40,1536.12"/>
    </edge>
    <edge id=":10019837169_6" function="internal">
        <lane id=":10019837169_6_0" index="0" allow="bicycle" speed="5.06" length="4.97" shape="1512.19,1539.50 1512.12,1538.14 1511.63,1537.13 1510.72,1536.45 1509.40,1536.12"/>
    </edge>
    <edge id=":10019837169_7" function="internal">
        <lane id=":10019837169_7_0" index="0" allow="bicycle" speed="5.56" length="9.23" shape="1512.19,1539.50 1512.43,1536.77 1512.64,1534.91 1512.95,1533.06 1513.49,1530.37"/>
    </edge>
    <edge id=":10019837169_8" function="internal">
        <lane id=":10019837169_8_0" index="0" allow="bicycle" speed="3.65" length="4.67" shape="1512.19,1539.50 1513.09,1538.37 1513.92,1538.04 1514.69,1538.51 1515.38,1539.77"/>
    </edge>
    <edge id=":10019837171_0" function="internal">
        <lane id=":10019837171_0_0" index="0" allow="bicycle" speed="3.65" length="4.67" shape="1581.56,1569.42 1582.65,1570.37 1582.95,1571.21 1582.45,1571.95 1581.16,1572.60"/>
    </edge>
    <edge id=":10019837173_0" function="internal">
        <lane id=":10019837173_0_0" index="0" allow="bicycle" speed="5.28" length="5.29" shape="1559.52,1529.64 1558.00,1529.59 1556.81,1529.96 1555.96,1530.77 1555.45,1532.01"/>
    </edge>
    <edge id=":10019837173_1" function="internal">
        <lane id=":10019837173_1_0" index="0" allow="bicycle" speed="5.56" length="10.51" shape="1559.52,1529.64 1556.75,1528.78 1554.98,1527.23 1554.22,1525.01 1554.47,1522.12"/>
    </edge>
    <edge id=":10019837173_2" function="internal">
        <lane id=":10019837173_2_0" index="0" allow="bicycle" speed="3.65" length="4.67" shape="1559.52,1529.64 1558.46,1528.66 1558.20,1527.81 1558.72,1527.08 1560.03,1526.48"/>
    </edge>
    <edge id=":10019837173_3" function="internal">
        <lane id=":10019837173_3_0" index="0" allow="bicycle" speed="4.97" length="5.08" shape="1557.59,1522.84 1557.47,1524.24 1557.83,1525.32 1558.69,1526.07 1560.03,1526.48"/>
    </edge>
    <edge id=":10019837173_4" function="internal">
        <lane id=":10019837173_4_0" index="0" allow="pedestrian delivery bicycle" speed="5.56" length="9.42" shape="1557.59,1522.84 1555.45,1532.01"/>
    </edge>
    <edge id=":10019837173_5" function="internal">
        <lane id=":10019837173_5_0" index="0" allow="pedestrian delivery bicycle" speed="3.65" length="4.67" shape="1557.59,1522.84 1556.54,1523.83 1555.67,1524.04 1554.98,1523.47 1554.47,1522.12"/>
    </edge>
    <edge id=":10019837173_6" function="internal">
        <lane id=":10019837173_6_0" index="0" allow="pedestrian delivery bicycle" speed="5.56" length="9.42" shape="1552.33,1531.29 1554.47,1522.12"/>
    </edge>
    <edge id=":10019837173_7" function="internal">
        <lane id=":10019837173_7_0" index="0" allow="bicycle" speed="5.56" length="10.19" shape="1552.33,1531.29 1553.32,1528.80 1554.94,1527.17 1557.17,1526.40 1560.03,1526.48"/>
    </edge>
    <edge id=":10019837173_8" function="internal">
        <lane id=":10019837173_8_0" index="0" allow="pedestrian delivery bicycle" speed="3.65" length="4.67" shape="1552.33,1531.29 1553.39,1530.30 1554.26,1530.09 1554.94,1530.66 1555.45,1532.01"/>
    </edge>
    <edge id=":10019837174_0" function="internal">
        <lane id=":10019837174_0_0" index="0" allow="pedestrian delivery bicycle" speed="5.56" length="9.42" shape="1630.35,1535.06 1628.13,1544.22"/>
    </edge>
    <edge id=":10019837174_1" function="internal">
        <lane id=":10019837174_1_0" index="0" allow="bicycle" speed="5.56" length="10.20" shape="1630.35,1535.06 1629.34,1537.52 1627.71,1539.14 1625.46,1539.90 1622.59,1539.81"/>
    </edge>
    <edge id=":10019837174_2" function="internal">
        <lane id=":10019837174_2_0" index="0" allow="pedestrian delivery bicycle" speed="3.65" length="4.67" shape="1630.35,1535.06 1629.29,1536.04 1628.41,1536.24 1627.73,1535.66 1627.24,1534.31"/>
    </edge>
    <edge id=":10019837174_3" function="internal">
        <lane id=":10019837174_3_0" index="0" allow="bicycle" speed="5.31" length="5.33" shape="1623.10,1536.65 1624.64,1536.71 1625.85,1536.34 1626.71,1535.54 1627.24,1534.31"/>
    </edge>
    <edge id=":10019837174_4" function="internal">
        <lane id=":10019837174_4_0" index="0" allow="bicycle" speed="5.56" length="10.55" shape="1623.10,1536.65 1625.89,1537.52 1627.66,1539.07 1628.40,1541.31 1628.13,1544.22"/>
    </edge>
    <edge id=":10019837174_5" function="internal">
        <lane id=":10019837174_5_0" index="0" allow="bicycle" speed="3.65" length="4.67" shape="1623.10,1536.65 1624.16,1537.63 1624.42,1538.49 1623.90,1539.21 1622.59,1539.81"/>
    </edge>
    <edge id=":10019837174_6" function="internal">
        <lane id=":10019837174_6_0" index="0" allow="bicycle" speed="4.96" length="5.10" shape="1625.02,1543.46 1625.15,1542.06 1624.79,1540.98 1623.94,1540.23 1622.59,1539.81"/>
    </edge>
    <edge id=":10019837174_7" function="internal">
        <lane id=":10019837174_7_0" index="0" allow="pedestrian delivery bicycle" speed="5.56" length="9.42" shape="1625.02,1543.46 1627.24,1534.31"/>
    </edge>
    <edge id=":10019837174_8" function="internal">
        <lane id=":10019837174_8_0" index="0" allow="pedestrian delivery bicycle" speed="3.65" length="4.67" shape="1625.02,1543.46 1626.08,1542.49 1626.95,1542.29 1627.63,1542.86 1628.13,1544.22"/>
    </edge>
    <edge id=":10019864339_0" function="internal">
        <lane id=":10019864339_0_0" index="0" allow="pedestrian delivery bicycle" speed="5.08" length="4.95" shape="871.34,1486.15 870.07,1485.69 868.94,1485.74 867.96,1486.29 867.13,1487.36"/>
    </edge>
    <edge id=":10019864339_1" function="internal">
        <lane id=":10019864339_1_0" index="0" allow="pedestrian delivery bicycle" speed="3.65" length="4.67" shape="871.34,1486.15 870.65,1484.88 870.67,1483.99 871.40,1483.47 872.84,1483.32"/>
    </edge>
    <edge id=":10019864339_2" function="internal">
        <lane id=":10019864339_2_0" index="0" allow="pedestrian delivery bicycle" speed="5.49" length="6.21" shape="870.32,1478.45 869.91,1479.78 870.20,1481.04 871.17,1482.22 872.84,1483.32"/>
    </edge>
    <edge id=":10019864339_3" function="internal">
        <lane id=":10019864339_3_0" index="0" allow="pedestrian delivery bicycle" speed="5.56" length="9.51" shape="870.32,1478.45 869.19,1481.01 868.76,1482.92 868.31,1484.82 867.13,1487.36"/>
    </edge>
    <edge id=":10019864339_4" function="internal">
        <lane id=":10019864339_4_0" index="0" allow="pedestrian delivery bicycle" speed="5.56" length="9.98" shape="864.36,1485.75 866.04,1483.61 868.01,1482.50 870.28,1482.40 872.84,1483.32"/>
    </edge>
    <edge id=":10019864339_5" function="internal">
        <lane id=":10019864339_5_0" index="0" allow="pedestrian delivery bicycle" speed="3.65" length="4.67" shape="864.36,1485.75 865.65,1485.12 866.55,1485.17 867.04,1485.92 867.13,1487.36"/>
    </edge>
    <edge id=":10019864340_0" function="internal">
        <lane id=":10019864340_0_0" index="0" allow="pedestrian delivery bicycle" speed="5.56" length="6.40" shape="905.21,1500.47 907.14,1501.28 908.73,1501.49 910.00,1501.09 910.94,1500.09"/>
    </edge>
    <edge id=":10019864340_1" function="internal">
        <lane id=":10019864340_1_0" index="0" allow="pedestrian delivery bicycle" speed="5.56" length="10.11" shape="905.21,1500.47 907.44,1502.10 908.63,1504.05 908.77,1506.34 907.86,1508.95"/>
    </edge>
    <edge id=":10019864340_2" function="internal">
        <lane id=":10019864340_2_0" index="0" allow="pedestrian delivery bicycle" speed="3.65" length="4.67" shape="905.21,1500.47 905.89,1501.74 905.87,1502.63 905.14,1503.15 903.71,1503.30"/>
    </edge>
    <edge id=":10019864340_3" function="internal">
        <lane id=":10019864340_3_0" index="0" allow="pedestrian delivery bicycle" speed="5.05" length="4.99" shape="905.02,1507.48 905.47,1506.19 905.40,1505.07 904.81,1504.10 903.71,1503.30"/>
    </edge>
    <edge id=":10019864340_4" function="internal">
        <lane id=":10019864340_4_0" index="0" allow="pedestrian delivery bicycle" speed="5.56" length="9.52" shape="905.02,1507.48 906.52,1505.12 907.89,1503.73 909.30,1502.37 910.94,1500.09"/>
    </edge>
    <edge id=":10019864340_5" function="internal">
        <lane id=":10019864340_5_0" index="0" allow="pedestrian delivery bicycle" speed="3.65" length="4.67" shape="905.02,1507.48 906.28,1506.78 907.17,1506.79 907.70,1507.52 907.86,1508.95"/>
    </edge>
    <edge id=":10019864341_0" function="internal">
        <lane id=":10019864341_0_0" index="0" allow="pedestrian delivery bicycle" speed="3.65" length="4.67" shape="892.17,1539.35 890.91,1540.05 890.02,1540.04 889.49,1539.32 889.33,1537.89"/>
    </edge>
    <edge id=":10019866377_0" function="internal">
        <lane id=":10019866377_0_0" index="0" allow="bicycle" speed="5.56" length="10.57" shape="1474.85,1408.16 1464.30,1407.52"/>
    </edge>
    <edge id=":10019866377_1" function="internal">
        <lane id=":10019866377_1_0" index="0" allow="bicycle" speed="5.56" length="11.48" shape="1474.85,1408.16 1472.90,1407.55 1470.87,1406.09 1468.76,1403.80 1466.57,1400.67"/>
    </edge>
    <edge id=":10019866377_2" function="internal">
        <lane id=":10019866377_2_0" index="0" allow="bicycle" speed="3.65" length="4.67" shape="1474.85,1408.16 1473.74,1407.24 1473.42,1406.41 1473.90,1405.65 1475.17,1404.98"/>
    </edge>
    <edge id=":10019866377_3" function="internal">
        <lane id=":10019866377_3_0" index="0" allow="bicycle" speed="5.56" length="8.60" shape="1469.29,1398.97 1471.01,1401.51 1472.57,1403.36 1473.95,1404.52 1475.17,1404.98"/>
    </edge>
    <edge id=":10019866377_4" function="internal">
        <lane id=":10019866377_4_0" index="0" allow="bicycle" speed="5.56" length="14.11" shape="1469.29,1398.97 1471.09,1402.89 1470.86,1405.62 1468.60,1407.16 1464.30,1407.52"/>
    </edge>
    <edge id=":10019866377_5" function="internal">
        <lane id=":10019866377_5_0" index="0" allow="bicycle" speed="3.65" length="4.67" shape="1469.29,1398.97 1469.25,1400.41 1468.78,1401.18 1467.89,1401.26 1466.57,1400.67"/>
    </edge>
    <edge id=":10019866377_6" function="internal">