<?xml version="1.0" encoding="UTF-8"?>

<!-- generated on 2026-01-19T14:26:51.049659+05:30 by Eclipse SUMO netconvert 1.25.0
<netconvertConfiguration xmlns:xsi="http://www.w3.org/2001/XMLSchema-instance" xsi:noNamespaceSchemaLocation="http://sumo.dlr.de/xsd/netconvertConfiguration.xsd">

    <input>
        <osm-files value="C:\Users\Shashanka\Desktop\Reinforcement_Signal_Optimizer_EL5\Reinforcement_Signal_Optimizer\backend\app\sumo\networks\osm\hudson_circle.osm"/>
    </input>

    <output>
        <output-file value="C:\Users\Shashanka\Desktop\Reinforcement_Signal_Optimizer_EL5\Reinforcement_Signal_Optimizer\backend\app\sumo\networks\converted\hudson_circle.net.xml"/>
    </output>

    <projection>
        <proj.utm value="true"/>
    </projection>

    <processing>
        <geometry.remove value="true"/>
        <roundabouts.guess value="true"/>
    </processing>

    <tls_building>
        <tls.discard-simple value="true"/>
        <tls.join value="true"/>
        <tls.guess-signals value="true"/>
    </tls_building>

    <ramp_guessing>
        <ramps.guess value="true"/>
    </ramp_guessing>

    <junctions>
        <junctions.join value="true"/>
    </junctions>

    <report>
        <no-warnings value="true"/>
    </report>

</netconvertConfiguration>
-->

<net version="1.20" junctionCornerDetail="5" limitTurnSpeed="5.50" xmlns:xsi="http://www.w3.org/2001/XMLSchema-instance" xsi:noNamespaceSchemaLocation="http://sumo.dlr.de/xsd/net_file.xsd">

    <location netOffset="-779971.20,-1434434.05" convBoundary="0.00,0.00,1519.67,1257.63" origBoundary="77.580695,12.857993,77.783066,13.041487" projParameter="+proj=utm +zone=43 +ellps=WGS84 +datum=WGS84 +units=m +no_defs"/>

    <type id="highway.footway" priority="1" numLanes="1" speed="2.78" allow="pedestrian" oneway="1" width="2.00"/>
    <type id="highway.path" priority="1" numLanes="1" speed="5.56" allow="pedestrian bicycle" oneway="0" width="2.00"/>
    <type id="highway.primary" priority="12" numLanes="2" speed="27.78" disallow="tram rail_urban rail rail_electric rail_fast ship container cable_car subway aircraft wheelchair scooter drone" oneway="0"/>
    <type id="highway.primary_link" priority="7" numLanes="1" speed="22.22" disallow="tram rail_urban rail rail_electric rail_fast ship container cable_car subway aircraft wheelchair scooter drone" oneway="0"/>
    <type id="highway.residential" priority="3" numLanes="1" speed="13.89" disallow="tram rail_urban rail rail_electric rail_fast ship container cable_car subway aircraft wheelchair scooter drone" oneway="0"/>
    <type id="highway.secondary" priority="11" numLanes="1" speed="27.78" disallow="tram rail_urban rail rail_electric rail_fast ship container cable_car subway aircraft wheelchair scooter drone" oneway="0"/>
    <type id="highway.service" priority="1" numLanes="1" speed="5.56" allow="pedestrian delivery bicycle" oneway="0"/>
    <type id="highway.tertiary" priority="10" numLanes="1" speed="22.22" disallow="tram rail_urban rail rail_electric rail_fast ship container cable_car subway aircraft wheelchair scooter drone" oneway="0"/>
    <type id="highway.unclassified" priority="4" numLanes="1" speed="13.89" disallow="tram rail_urban rail rail_electric rail_fast ship container cable_car subway aircraft wheelchair scooter drone" oneway="0"/>

    <edge id=":10044013197_0" function="internal">
        <lane id=":10044013197_0_0" index="0" allow="pedestrian delivery bicycle" speed="5.56" length="6.51" shape="786.80,470.45 785.24,471.59 784.15,472.35 783.10,473.15 781.67,474.45"/>
    </edge>
    <edge id=":10044013197_1" function="internal">
        <lane id=":10044013197_1_0" index="0" allow="pedestrian delivery bicycle" speed="3.65" length="1.44" shape="786.80,470.45 785.36,470.55"/>
    </edge>
    <edge id=":10044013197_4" function="internal">
        <lane id=":10044013197_4_0" index="0" allow="pedestrian delivery bicycle" speed="3.65" length="3.23" shape="785.36,470.55 784.56,470.15 784.39,469.28 784.86,467.91"/>
    </edge>
    <edge id=":10044013197_2" function="internal">
        <lane id=":10044013197_2_0" index="0" allow="pedestrian delivery bicycle" speed="5.56" length="6.16" shape="779.97,471.64 781.33,470.42 782.33,469.68 783.38,468.98 784.86,467.91"/>
    </edge>
    <edge id=":10044013197_3" function="internal">
        <lane id=":10044013197_3_0" index="0" allow="pedestrian delivery bicycle" speed="3.68" length="1.35" shape="779.97,471.64 781.32,471.70"/>
    </edge>
    <edge id=":10044013197_5" function="internal">
        <lane id=":10044013197_5_0" index="0" allow="pedestrian delivery bicycle" speed="3.68" length="3.44" shape="781.32,471.70 781.45,471.70 782.22,472.19 782.30,473.11 781.67,474.45"/>
    </edge>
    <edge id=":10044013214_0" function="internal">
        <lane id=":10044013214_0_0" index="0" allow="pedestrian delivery bicycle" speed="6.42" length="8.45" shape="730.15,615.65 728.39,614.95 727.25,613.58 726.73,611.55 726.83,608.87"/>
        <lane id=":10044013214_0_1" index="1" allow="pedestrian delivery bicycle" speed="5.71" length="6.48" shape="730.15,615.65 729.69,614.72 729.65,612.78 729.83,610.68 730.00,609.30"/>
    </edge>
    <edge id=":10044013214_2" function="internal">
        <lane id=":10044013214_2_0" index="0" allow="pedestrian delivery bicycle" speed="3.65" length="4.67" shape="730.15,615.65 729.11,614.65 728.86,613.79 729.39,613.08 730.72,612.50"/>
    </edge>
    <edge id=":10044013214_3" function="internal">
        <lane id=":10044013214_3_0" index="0" disallow="tram rail_urban rail rail_electric rail_fast ship container cable_car subway aircraft wheelchair scooter drone" speed="27.78" length="9.41" shape="719.23,617.34 720.49,608.01"/>
        <lane id=":10044013214_3_1" index="1" disallow="tram rail_urban rail rail_electric rail_fast ship container cable_car subway aircraft wheelchair scooter drone" speed="27.78" length="9.41" shape="722.40,617.77 723.66,608.44"/>
        <lane id=":10044013214_3_2" index="2" disallow="tram rail_urban rail rail_electric rail_fast ship container cable_car subway aircraft wheelchair scooter drone" speed="27.78" length="9.41" shape="725.57,618.19 726.83,608.87"/>
        <lane id=":10044013214_3_3" index="3" disallow="tram rail_urban rail rail_electric rail_fast ship container cable_car subway aircraft wheelchair scooter drone" speed="27.78" length="9.41" shape="728.74,618.62 730.00,609.30"/>
    </edge>
    <edge id=":10044013214_7" function="internal">
        <lane id=":10044013214_7_0" index="0" allow="pedestrian delivery bicycle" speed="5.60" length="6.64" shape="728.74,618.62 729.18,615.87 729.66,613.93 730.17,612.81 730.72,612.50"/>
    </edge>
    <edge id=":10044013418_0" function="internal">
        <lane id=":10044013418_0_0" index="0" allow="pedestrian bicycle" speed="5.56" length="4.32" width="2.00" shape="710.49,593.42 709.37,594.03 708.63,594.51 707.95,595.06 706.99,595.91"/>
    </edge>
    <edge id=":10044013418_1" function="internal">
        <lane id=":10044013418_1_0" index="0" allow="pedestrian bicycle" speed="2.89" length="0.79" width="2.00" shape="710.49,593.42 709.70,593.34"/>
    </edge>
    <edge id=":10044013418_4" function="internal">
        <lane id=":10044013418_4_0" index="0" allow="pedestrian bicycle" speed="2.89" length="2.13" width="2.00" shape="709.70,593.34 709.60,593.33 709.14,593.00 709.13,592.44 709.56,591.65"/>
    </edge>
    <edge id=":10044013418_2" function="internal">
        <lane id=":10044013418_2_0" index="0" allow="pedestrian bicycle" speed="5.56" length="4.78" width="2.00" shape="705.67,594.40 706.74,593.47 707.50,592.85 708.32,592.33 709.56,591.65"/>
    </edge>
    <edge id=":10044013418_3" function="internal">
        <lane id=":10044013418_3_0" index="0" allow="pedestrian bicycle" speed="2.89" length="2.42" width="2.00" shape="705.67,594.40 706.57,594.28 707.08,594.50 707.22,595.04 707.12,595.42"/>
    </edge>
    <edge id=":10044013418_5" function="internal">
        <lane id=":10044013418_5_0" index="0" allow="pedestrian bicycle" speed="2.89" length="0.51" width="2.00" shape="707.12,595.42 706.99,595.91"/>
    </edge>
    <edge id=":10044013425_0" function="internal">
        <lane id=":10044013425_0_0" index="0" allow="pedestrian bicycle" speed="4.27" length="1.22" width="2.00" shape="713.23,592.88 712.91,592.75 712.67,592.75 712.42,592.83 712.06,592.93"/>
    </edge>
    <edge id=":10044013425_1" function="internal">
        <lane id=":10044013425_1_0" index="0" allow="pedestrian bicycle" speed="2.89" length="0.80" width="2.00" shape="713.23,592.88 712.86,592.17"/>
    </edge>
    <edge id=":10044013425_4" function="internal">
        <lane id=":10044013425_4_0" index="0" allow="pedestrian bicycle" speed="2.89" length="2.12" width="2.00" shape="712.86,592.17 712.81,592.08 712.83,591.52 713.29,591.20 714.18,591.12"/>
    </edge>
    <edge id=":10044013425_2" function="internal">
        <lane id=":10044013425_2_0" index="0" allow="pedestrian bicycle" speed="5.56" length="3.21" width="2.00" shape="711.09,591.09 712.02,590.86 712.69,590.71 713.34,590.76 714.18,591.12"/>
    </edge>
    <edge id=":10044013425_3" function="internal">
        <lane id=":10044013425_3_0" index="0" allow="pedestrian bicycle" speed="2.93" length="1.52" width="2.00" shape="711.09,591.09 712.03,591.18 712.50,591.52"/>
    </edge>
    <edge id=":10044013425_5" function="internal">
        <lane id=":10044013425_5_0" index="0" allow="pedestrian bicycle" speed="2.93" length="1.52" width="2.00" shape="712.50,591.52 712.51,592.10 712.06,592.93"/>
    </edge>
    <edge id=":10044013426_0" function="internal">
        <lane id=":10044013426_0_0" index="0" allow="pedestrian bicycle" speed="5.56" length="4.77" width="2.00" shape="719.28,596.86 719.40,598.27 719.41,599.24 719.32,600.21 719.12,601.61"/>
    </edge>
    <edge id=":10044013426_1" function="internal">
        <lane id=":10044013426_1_0" index="0" allow="pedestrian bicycle" speed="2.89" length="2.92" width="2.00" shape="719.28,596.86 718.85,597.65 718.38,597.95 717.86,597.74 717.29,597.04"/>
    </edge>
    <edge id=":10044013426_2" function="internal">
        <lane id=":10044013426_2_0" index="0" allow="pedestrian bicycle" speed="5.56" length="4.30" width="2.00" shape="717.14,601.32 717.32,600.06 717.40,599.19 717.39,598.31 717.29,597.04"/>
    </edge>
    <edge id=":10044013426_3" function="internal">
        <lane id=":10044013426_3_0" index="0" allow="pedestrian bicycle" speed="2.89" length="2.92" width="2.00" shape="717.14,601.32 717.74,600.65 718.27,600.47 718.73,600.79 719.12,601.61"/>
    </edge>
    <edge id=":10044013436_0" function="internal">
        <lane id=":10044013436_0_0" index="0" allow="pedestrian bicycle" speed="2.89" length="2.92" width="2.00" shape="623.87,1249.98 623.27,1250.65 622.74,1250.83 622.28,1250.51 621.89,1249.70"/>
    </edge>
    <edge id=":10060517295_0" function="internal">
        <lane id=":10060517295_0_0" index="0" allow="pedestrian delivery bicycle" speed="5.56" length="0.95" shape="666.53,670.98 666.34,670.78 666.19,670.66 666.01,670.58 665.74,670.51"/>
    </edge>
    <edge id=":10060517295_1" function="internal">
        <lane id=":10060517295_1_0" index="0" allow="pedestrian delivery bicycle" speed="5.56" length="2.84" shape="666.51,667.40 667.32,667.62 667.85,667.85 668.31,668.21 668.89,668.82"/>
    </edge>
    <edge id=":10060517300_0" function="internal">
        <lane id=":10060517300_0_0" index="0" allow="pedestrian delivery bicycle" speed="5.56" length="9.93" shape="670.43,699.07 664.03,691.48"/>
    </edge>
    <edge id=":10060517300_1" function="internal">
        <lane id=":10060517300_1_0" index="0" allow="pedestrian delivery bicycle" speed="5.56" length="10.75" shape="670.43,699.07 669.32,697.09 669.00,694.74 669.49,692.02 670.77,688.94"/>
    </edge>
    <edge id=":10060517300_2" function="internal">
        <lane id=":10060517300_2_0" index="0" allow="pedestrian delivery bicycle" speed="3.65" length="4.67" shape="670.43,699.07 670.27,697.64 670.62,696.82 671.49,696.61 672.88,697.01"/>
    </edge>
    <edge id=":10060517300_3" function="internal">
        <lane id=":10060517300_3_0" index="0" allow="pedestrian delivery bicycle" speed="5.56" length="6.99" shape="673.62,690.40 672.67,692.56 672.23,694.38 672.30,695.86 672.88,697.01"/>
    </edge>
    <edge id=":10060517300_4" function="internal">
        <lane id=":10060517300_4_0" index="0" allow="pedestrian delivery bicycle" speed="5.56" length="12.41" shape="673.62,690.40 671.52,693.37 669.23,694.53 666.73,693.91 664.03,691.48"/>
    </edge>
    <edge id=":10060517300_5" function="internal">
        <lane id=":10060517300_5_0" index="0" allow="pedestrian delivery bicycle" speed="3.65" length="4.67" shape="673.62,690.40 672.36,691.10 671.46,691.09 670.93,690.37 670.77,688.94"/>
    </edge>
    <edge id=":10060517300_6" function="internal">
        <lane id=":10060517300_6_0" index="0" allow="pedestrian delivery bicycle" speed="4.73" length="5.56" shape="666.47,689.42 667.69,690.51 668.81,690.79 669.84,690.26 670.77,688.94"/>
    </edge>
    <edge id=":10060517300_7" function="internal">
        <lane id=":10060517300_7_0" index="0" allow="pedestrian delivery bicycle" speed="5.56" length="9.93" shape="666.47,689.42 672.88,697.01"/>
    </edge>
    <edge id=":10060517300_8" function="internal">
        <lane id=":10060517300_8_0" index="0" allow="pedestrian delivery bicycle" speed="3.65" length="4.67" shape="666.47,689.42 666.64,690.85 666.28,691.67 665.41,691.89 664.03,691.48"/>
    </edge>
    <edge id=":10060517303_0" function="internal">
        <lane id=":10060517303_0_0" index="0" allow="pedestrian delivery bicycle" speed="3.65" length="4.67" shape="758.04,689.83 759.17,690.73 759.49,691.56 759.02,692.32 757.76,693.01"/>
    </edge>
    <edge id=":10060517306_0" function="internal">
        <lane id=":10060517306_0_0" index="0" allow="pedestrian delivery bicycle" speed="3.65" length="4.67" shape="835.17,691.61 836.25,692.57 836.54,693.42 836.03,694.16 834.73,694.79"/>
    </edge>
    <edge id=":10060517307_0" function="internal">
        <lane id=":10060517307_0_0" index="0" allow="pedestrian delivery bicycle" speed="6.95" length="10.17" shape="782.76,570.42 783.11,567.62 784.23,565.58 786.14,564.30 788.82,563.79"/>
        <lane id=":10060517307_0_1" index="1" allow="pedestrian delivery bicycle" speed="6.17" length="7.81" shape="782.76,570.42 783.13,569.02 784.29,567.98 786.23,567.30 788.96,566.98"/>
    </edge>
    <edge id=":10060517307_2" function="internal">
        <lane id=":10060517307_2_0" index="0" allow="pedestrian delivery bicycle" speed="3.65" length="4.67" shape="782.76,570.42 783.54,569.21 784.34,568.80 785.14,569.19 785.96,570.38"/>
    </edge>
    <edge id=":10060517307_3" function="internal">
        <lane id=":10060517307_3_0" index="0" disallow="tram rail_urban rail rail_electric rail_fast ship container cable_car subway aircraft wheelchair scooter drone" speed="27.78" length="9.40" shape="779.28,561.01 788.68,560.59"/>
        <lane id=":10060517307_3_1" index="1" disallow="tram rail_urban rail rail_electric rail_fast ship container cable_car subway aircraft wheelchair scooter drone" speed="27.78" length="9.40" shape="779.42,564.21 788.82,563.79"/>
        <lane id=":10060517307_3_2" index="2" disallow="tram rail_urban rail rail_electric rail_fast ship container cable_car subway aircraft wheelchair scooter drone" speed="27.78" length="9.40" shape="779.57,567.41 788.96,566.98"/>
    </edge>
    <edge id=":10060517307_6" function="internal">
        <lane id=":10060517307_6_0" index="0" allow="pedestrian delivery bicycle" speed="6.05" length="7.85" shape="779.57,567.41 782.35,567.48 784.34,568.01 785.54,568.97 785.96,570.38"/>
    </edge>
    <edge id=":10060517309_0" function="internal">
        <lane id=":10060517309_0_0" index="0" allow="pedestrian delivery bicycle" speed="3.65" length="4.67" shape="802.59,580.01 803.81,580.79 804.22,581.58 803.83,582.39 802.65,583.21"/>
    </edge>
    <edge id=":10060517316_0" function="internal">
        <lane id=":10060517316_0_0" index="0" allow="pedestrian delivery bicycle" speed="3.65" length="4.67" shape="752.11,610.93 751.26,612.09 750.44,612.46 749.66,612.02 748.91,610.79"/>
    </edge>
    <edge id=":10060517318_0" function="internal">
        <lane id=":10060517318_0_0" index="0" allow="pedestrian delivery bicycle" speed="3.65" length="4.67" shape="555.24,478.07 553.82,477.81 553.14,477.23 553.19,476.33 553.98,475.13"/>
    </edge>
    <edge id=":10060517326_0" function="internal">
        <lane id=":10060517326_0_0" index="0" allow="pedestrian delivery bicycle" speed="3.65" length="4.67" shape="566.11,519.63 564.70,519.32 564.04,518.72 564.12,517.83 564.95,516.65"/>
    </edge>
    <edge id=":10060517328_0" function="internal">
        <lane id=":10060517328_0_0" index="0" allow="pedestrian delivery bicycle" speed="5.00" length="5.05" shape="664.45,482.15 663.77,480.93 662.87,480.24 661.75,480.08 660.41,480.44"/>
    </edge>
    <edge id=":10060517328_1" function="internal">
        <lane id=":10060517328_1_0" index="0" allow="pedestrian delivery bicycle" speed="5.56" length="9.36" shape="664.45,482.15 661.20,473.36"/>
    </edge>
    <edge id=":10060517328_2" function="internal">
        <lane id=":10060517328_2_0" index="0" allow="pedestrian delivery bicycle" speed="3.65" length="4.67" shape="664.45,482.15 664.76,480.74 665.37,480.08 666.26,480.16 667.43,481.00"/>
    </edge>
    <edge id=":10060517328_3" function="internal">
        <lane id=":10060517328_3_0" index="0" allow="pedestrian delivery bicycle" speed="5.56" length="9.28" shape="664.22,472.29 667.43,481.00"/>
    </edge>
    <edge id=":10060517328_4" function="internal">
        <lane id=":10060517328_4_0" index="0" allow="pedestrian delivery bicycle" speed="5.56" length="10.11" shape="664.22,472.29 664.73,474.92 664.27,477.16 662.82,479.00 660.41,480.44"/>
    </edge>
    <edge id=":10060517328_5" function="internal">
        <lane id=":10060517328_5_0" index="0" allow="pedestrian delivery bicycle" speed="3.65" length="4.67" shape="664.22,472.29 663.86,473.69 663.24,474.34 662.36,474.23 661.20,473.36"/>
    </edge>
    <edge id=":10060517328_6" function="internal">
        <lane id=":10060517328_6_0" index="0" allow="pedestrian delivery bicycle" speed="5.23" length="5.19" shape="659.15,477.50 660.42,476.75 661.19,475.81 661.45,474.68 661.20,473.36"/>
    </edge>
    <edge id=":10060517328_7" function="internal">
        <lane id=":10060517328_7_0" index="0" allow="pedestrian delivery bicycle" speed="5.56" length="10.35" shape="659.15,477.50 661.90,476.76 664.20,477.10 666.04,478.51 667.43,481.00"/>
    </edge>
    <edge id=":10060517328_8" function="internal">
        <lane id=":10060517328_8_0" index="0" allow="pedestrian delivery bicycle" speed="3.65" length="4.67" shape="659.15,477.50 660.56,477.76 661.25,478.34 661.19,479.23 660.41,480.44"/>
    </edge>
    <edge id=":10060517329_0" function="internal">
        <lane id=":10060517329_0_0" index="0" disallow="tram rail_urban rail rail_electric rail_fast ship container cable_car subway aircraft wheelchair scooter drone" speed="8.55" length="10.28" shape="592.84,520.66 591.67,521.66 590.72,523.55 590.02,526.36 589.54,530.06"/>
    </edge>
    <edge id=":10060517329_1" function="internal">
        <lane id=":10060517329_1_0" index="0" disallow="tram rail_urban rail rail_electric rail_fast ship container cable_car subway aircraft wheelchair scooter drone" speed="22.22" length="13.07" shape="592.84,520.66 580.80,525.74"/>
    </edge>
    <edge id=":10060517329_2" function="internal">
        <lane id=":10060517329_2_0" index="0" disallow="tram rail_urban rail rail_electric rail_fast ship container cable_car subway aircraft wheelchair scooter drone" speed="3.65" length="1.44" shape="592.84,520.66 591.43,520.37"/>
    </edge>
    <edge id=":10060517329_9" function="internal">
        <lane id=":10060517329_9_0" index="0" disallow="tram rail_urban rail rail_electric rail_fast ship container cable_car subway aircraft wheelchair scooter drone" speed="3.65" length="3.23" shape="591.43,520.37 590.75,519.78 590.82,518.89 591.63,517.69"/>
    </edge>
    <edge id=":10060517329_3" function="internal">
        <lane id=":10060517329_3_0" index="0" disallow="tram rail_urban rail rail_electric rail_fast ship container cable_car subway aircraft wheelchair scooter drone" speed="22.22" length="13.11" shape="579.55,522.79 591.63,517.69"/>
    </edge>
    <edge id=":10060517329_4" function="internal">
        <lane id=":10060517329_4_0" index="0" disallow="tram rail_urban rail rail_electric rail_fast ship container cable_car subway aircraft wheelchair scooter drone" speed="7.42" length="4.93" shape="579.55,522.79 584.31,521.50"/>
    </edge>
    <edge id=":10060517329_5" function="internal">
        <lane id=":10060517329_5_0" index="0" disallow="tram rail_urban rail rail_electric rail_fast ship container cable_car subway aircraft wheelchair scooter drone" speed="3.65" length="1.44" shape="579.55,522.79 580.97,523.06"/>
    </edge>
    <edge id=":10060517329_10" function="internal">
        <lane id=":10060517329_10_0" index="0" disallow="tram rail_urban rail rail_electric rail_fast ship container cable_car subway aircraft wheelchair scooter drone" speed="7.42" length="11.61" shape="584.31,521.50 587.56,522.29 589.30,525.14 589.54,530.06"/>
    </edge>
    <edge id=":10060517329_11" function="internal">
        <lane id=":10060517329_11_0" index="0" disallow="tram rail_urban rail rail_electric rail_fast ship container cable_car subway aircraft wheelchair scooter drone" speed="3.65" length="3.23" shape="580.97,523.06 581.65,523.65 581.59,524.54 580.80,525.74"/>
    </edge>
    <edge id=":10060517329_6" function="internal">
        <lane id=":10060517329_6_0" index="0" disallow="tram rail_urban rail rail_electric rail_fast ship container cable_car subway aircraft wheelchair scooter drone" speed="5.71" length="9.20" shape="586.35,529.79 586.22,527.05 585.25,525.46 583.44,525.03 580.80,525.74"/>
    </edge>
    <edge id=":10060517329_7" function="internal">
        <lane id=":10060517329_7_0" index="0" disallow="tram rail_urban rail rail_electric rail_fast ship container cable_car subway aircraft wheelchair scooter drone" speed="9.81" length="13.74" shape="586.35,529.79 587.01,525.19 588.12,521.65 589.66,519.15 591.63,517.69"/>
    </edge>
    <edge id=":10060517329_8" function="internal">
        <lane id=":10060517329_8_0" index="0" disallow="tram rail_urban rail rail_electric rail_fast ship container cable_car subway aircraft wheelchair scooter drone" speed="3.65" length="4.67" shape="586.35,529.79 587.25,528.66 588.08,528.33 588.85,528.80 589.54,530.06"/>
    </edge>
    <edge id=":10060517331_0" function="internal">
        <lane id=":10060517331_0_0" index="0" disallow="tram rail_urban rail rail_electric rail_fast ship container cable_car subway aircraft wheelchair scooter drone" speed="3.65" length="4.67" shape="585.20,580.06 584.30,581.18 583.47,581.51 582.71,581.05 582.02,579.78"/>
    </edge>
    <edge id=":10060571783_0" function="internal">
        <lane id=":10060571783_0_0" index="0" disallow="tram rail_urban rail rail_electric rail_fast ship container cable_car subway aircraft wheelchair scooter drone" speed="27.78" length="10.40" shape="1066.81,571.02 1063.58,571.10 1061.38,572.73 1059.18,574.37 1055.95,574.45"/>
        <lane id=":10060571783_0_1" index="1" disallow="tram rail_urban rail rail_electric rail_fast ship container cable_car subway aircraft wheelchair scooter drone" speed="27.78" length="10.40" shape="1066.81,571.02 1063.91,570.68 1061.84,571.20 1059.76,571.73 1056.86,571.38"/>
        <lane id=":10060571783_0_2" index="2" disallow="tram rail_urban rail rail_electric rail_fast ship container cable_car subway aircraft wheelchair scooter drone" speed="27.78" length="10.40" shape="1067.73,567.96 1064.83,567.61 1062.76,568.14 1060.68,568.66 1057.78,568.32"/>
        <lane id=":10060571783_0_3" index="3" disallow="tram rail_urban rail rail_electric rail_fast ship container cable_car subway aircraft wheelchair scooter drone" speed="27.78" length="10.40" shape="1067.73,567.96 1058.70,565.25"/>
    </edge>
    <edge id=":10060571783_4" function="internal">
        <lane id=":10060571783_4_0" index="0" allow="pedestrian delivery bicycle" speed="6.34" length="7.92" shape="1067.73,567.96 1065.18,566.98 1063.46,565.83 1062.55,564.50 1062.46,562.99"/>
    </edge>
    <edge id=":10060571783_5" function="internal">
        <lane id=":10060571783_5_0" index="0" allow="pedestrian delivery bicycle" speed="6.79" length="10.63" shape="1065.60,563.62 1064.61,566.40 1062.98,568.11 1060.70,568.75 1057.78,568.32"/>
        <lane id=":10060571783_5_1" index="1" allow="pedestrian delivery bicycle" speed="5.99" length="8.02" shape="1065.60,563.62 1064.90,565.03 1063.52,565.77 1061.45,565.84 1058.70,565.25"/>
    </edge>
    <edge id=":10060571783_7" function="internal">
        <lane id=":10060571783_7_0" index="0" allow="pedestrian delivery bicycle" speed="3.65" length="4.67" shape="1065.60,563.62 1064.58,564.64 1063.71,564.88 1063.01,564.33 1062.46,562.99"/>
    </edge>
    <edge id=":10060571784_0" function="internal">
        <lane id=":10060571784_0_0" index="0" allow="pedestrian delivery bicycle" speed="3.65" length="4.67" shape="1067.28,539.00 1068.30,537.99 1069.17,537.75 1069.87,538.30 1070.42,539.64"/>
    </edge>
    <edge id=":10060571787_0" function="internal">
        <lane id=":10060571787_0_0" index="0" disallow="tram rail_urban rail rail_electric rail_fast ship container cable_car subway aircraft wheelchair scooter drone" speed="27.78" length="9.57" shape="955.14,551.50 945.63,549.82"/>
        <lane id=":10060571787_0_1" index="1" disallow="tram rail_urban rail rail_electric rail_fast ship container cable_car subway aircraft wheelchair scooter drone" speed="27.78" length="9.57" shape="955.61,548.33 946.26,546.69"/>
    </edge>
    <edge id=":10060571787_2" function="internal">
        <lane id=":10060571787_2_0" index="0" allow="pedestrian delivery bicycle" speed="6.22" length="7.94" shape="955.61,548.33 952.93,547.72 951.07,546.82 950.03,545.61 949.80,544.10"/>
    </edge>
    <edge id=":10060571787_3" function="internal">
        <lane id=":10060571787_3_0" index="0" allow="pedestrian delivery bicycle" speed="6.00" length="8.01" shape="952.98,544.46 952.42,545.91 951.11,546.77 949.06,547.03 946.26,546.69"/>
    </edge>
    <edge id=":10060571787_4" function="internal">
        <lane id=":10060571787_4_0" index="0" allow="pedestrian delivery bicycle" speed="3.65" length="4.67" shape="952.98,544.46 952.06,545.56 951.22,545.87 950.47,545.38 949.80,544.10"/>
    </edge>
    <edge id=":10060571789_0" function="internal">
        <lane id=":10060571789_0_0" index="0" allow="pedestrian delivery bicycle" speed="3.65" length="4.67" shape="920.27,509.52 919.96,508.11 920.23,507.26 921.08,506.96 922.49,507.22"/>
    </edge>
    <edge id=":10060571792_0" function="internal">
        <lane id=":10060571792_0_0" index="0" allow="pedestrian delivery bicycle" speed="3.65" length="4.67" shape="958.02,506.34 959.19,505.50 960.08,505.42 960.69,506.07 961.00,507.48"/>
    </edge>
    <edge id=":10099892039_0" function="internal">
        <lane id=":10099892039_0_0" index="0" allow="pedestrian delivery bicycle" speed="5.56" length="3.81" shape="724.68,695.14 723.58,694.89 722.83,694.69 722.07,694.53 720.95,694.40"/>
    </edge>
    <edge id=":10099892039_1" function="internal">
        <lane id=":10099892039_1_0" index="0" allow="pedestrian delivery bicycle" speed="3.65" length="1.45" shape="724.68,695.14 723.72,694.05"/>
    </edge>
    <edge id=":10099892039_4" function="internal">
        <lane id=":10099892039_4_0" index="0" allow="pedestrian delivery bicycle" speed="3.65" length="3.24" shape="723.72,694.05 723.54,693.17 724.13,692.50 725.50,692.03"/>
    </edge>
    <edge id=":10099892039_2" function="internal">
        <lane id=":10099892039_2_0" index="0" allow="pedestrian delivery bicycle" speed="5.56" length="4.53" shape="721.06,691.20 722.39,691.35 723.29,691.53 724.19,691.75 725.50,692.03"/>
    </edge>
    <edge id=":10099892039_3" function="internal">
        <lane id=":10099892039_3_0" index="0" allow="pedestrian delivery bicycle" speed="3.65" length="1.44" shape="721.06,691.20 722.23,692.04"/>
    </edge>
    <edge id=":10099892039_5" function="internal">
        <lane id=":10099892039_5_0" index="0" allow="pedestrian delivery bicycle" speed="3.65" length="3.23" shape="722.23,692.04 722.61,692.85 722.18,693.64 720.95,694.40"/>
    </edge>
    <edge id=":10279677018_0" function="internal">
        <lane id=":10279677018_0_0" index="0" allow="pedestrian delivery bicycle" speed="5.56" length="2.94" shape="733.20,616.39 730.34,615.69"/>
    </edge>
    <edge id=":10279677018_1" function="internal">
        <lane id=":10279677018_1_0" index="0" allow="pedestrian delivery bicycle" speed="3.65" length="1.44" shape="733.20,616.39 732.22,615.33"/>
    </edge>
    <edge id=":10279677018_4" function="internal">
        <lane id=":10279677018_4_0" index="0" allow="pedestrian delivery bicycle" speed="3.65" length="3.23" shape="732.22,615.33 732.03,614.45 732.61,613.77 733.97,613.29"/>
    </edge>
    <edge id=":10279677018_2" function="internal">
        <lane id=":10279677018_2_0" index="0" allow="pedestrian delivery bicycle" speed="5.56" length="3.14" shape="730.91,612.54 733.97,613.29"/>
    </edge>
    <edge id=":10279677018_3" function="internal">
        <lane id=":10279677018_3_0" index="0" allow="pedestrian delivery bicycle" speed="3.65" length="1.44" shape="730.91,612.54 731.95,613.54"/>
    </edge>
    <edge id=":10279677018_5" function="internal">
        <lane id=":10279677018_5_0" index="0" allow="pedestrian delivery bicycle" speed="3.65" length="3.23" shape="731.95,613.54 732.20,614.40 731.67,615.11 730.34,615.69"/>
    </edge>