<?xml version="1.0" encoding="UTF-8"?>

<!-- generated on 2026-01-19T14:26:52.845547+05:30 by Eclipse SUMO netconvert 1.25.0
<netconvertConfiguration xmlns:xsi="http://www.w3.org/2001/XMLSchema-instance" xsi:noNamespaceSchemaLocation="http://sumo.dlr.de/xsd/netconvertConfiguration.xsd">

    <input>
        <osm-files value="C:\Users\Shashanka\Desktop\Reinforcement_Signal_Optimizer_EL5\Reinforcement_Signal_Optimizer\backend\app\sumo\networks\osm\MHC_circle_lalbagh.osm"/>
    </input>

    <output>
        <output-file value="C:\Users\Shashanka\Desktop\Reinforcement_Signal_Optimizer_EL5\Reinforcement_Signal_Optimizer\backend\app\sumo\networks\converted\MHC_circle_lalbagh.net.xml"/>
    </output>

    <projection>
        <proj.utm value="true"/>
    </projection>

    <processing>
        <geometry.remove value="true"/>
        <roundabouts.guess value="true"/>
    </processing>

    <tls_building>
        <tls.discard-simple value="true"/>
        <tls.join value="true"/>
        <tls.guess-signals value="true"/>
    </tls_building>

    <ramp_guessing>
        <ramps.guess value="true"/>
    </ramp_guessing>

    <junctions>
        <junctions.join value="true"/>
    </junctions>

    <report>
        <no-warnings value="true"/>
    </report>

</netconvertConfiguration>
-->

<net version="1.20" junctionCornerDetail="5" limitTurnSpeed="5.50" xmlns:xsi="http://www.w3.org/2001/XMLSchema-instance" xsi:noNamespaceSchemaLocation="http://sumo.dlr.de/xsd/net_file.xsd">

    <location netOffset="-779212.51,-1432746.54" convBoundary="0.00,0.00,2028.14,1428.94" origBoundary="77.573555,12.947494,77.592226,12.961258" projParameter="+proj=utm +zone=43 +ellps=WGS84 +datum=WGS84 +units=m +no_defs"/>

    <type id="highway.footway" priority="1" numLanes="1" speed="2.78" allow="pedestrian" oneway="1" width="2.00"/>
    <type id="highway.living_street" priority="2" numLanes="1" speed="2.78" disallow="tram rail_urban rail rail_electric rail_fast ship container cable_car subway aircraft wheelchair scooter drone" oneway="0"/>
    <type id="highway.pedestrian" priority="1" numLanes="1" speed="2.78" allow="pedestrian" oneway="1" width="2.00"/>
    <type id="highway.primary" priority="12" numLanes="2" speed="27.78" disallow="tram rail_urban rail rail_electric rail_fast ship container cable_car subway aircraft wheelchair scooter drone" oneway="0"/>
    <type id="highway.residential" priority="3" numLanes="1" speed="13.89" disallow="tram rail_urban rail rail_electric rail_fast ship container cable_car subway aircraft wheelchair scooter drone" oneway="0"/>
    <type id="highway.secondary" priority="11" numLanes="1" speed="27.78" disallow="tram rail_urban rail rail_electric rail_fast ship container cable_car subway aircraft wheelchair scooter drone" oneway="0"/>
    <type id="highway.service" priority="1" numLanes="1" speed="5.56" allow="pedestrian delivery bicycle" oneway="0"/>
    <type id="highway.tertiary" priority="10" numLanes="1" speed="22.22" disallow="tram rail_urban rail rail_electric rail_fast ship container cable_car subway aircraft wheelchair scooter drone" oneway="0"/>

    <edge id=":10023965492_0" function="internal">
        <lane id=":10023965492_0_0" index="0" allow="pedestrian delivery bicycle" speed="3.65" length="4.67" shape="661.12,1266.40 660.39,1267.65 659.62,1268.10 658.80,1267.75 657.92,1266.60"/>
    </edge>
    <edge id=":10023965493_0" function="internal">
        <lane id=":10023965493_0_0" index="0" allow="pedestrian delivery bicycle" speed="3.65" length="4.67" shape="655.93,1227.16 656.67,1225.92 657.45,1225.48 658.27,1225.84 659.13,1227.00"/>
    </edge>
    <edge id=":10023965494_0" function="internal">
        <lane id=":10023965494_0_0" index="0" allow="pedestrian delivery bicycle" speed="5.10" length="5.08" shape="641.37,1202.65 641.09,1201.26 640.45,1200.29 639.45,1199.74 638.10,1199.60"/>
    </edge>
    <edge id=":10023965494_1" function="internal">
        <lane id=":10023965494_1_0" index="0" allow="pedestrian delivery bicycle" speed="6.85" length="10.26" shape="641.37,1202.65 641.59,1199.84 642.66,1197.79 644.58,1196.50 647.35,1195.98"/>
    </edge>
    <edge id=":10023965494_2" function="internal">
        <lane id=":10023965494_2_0" index="0" allow="pedestrian delivery bicycle" speed="3.65" length="4.67" shape="641.37,1202.65 642.09,1201.40 642.86,1200.95 643.69,1201.29 644.56,1202.44"/>
    </edge>
    <edge id=":10023965494_3" function="internal">
        <lane id=":10023965494_3_0" index="0" allow="pedestrian delivery bicycle" speed="5.02" length="5.02" shape="647.49,1199.17 646.13,1199.43 645.19,1200.06 644.67,1201.06 644.56,1202.44"/>
    </edge>
    <edge id=":10023965494_4" function="internal">
        <lane id=":10023965494_4_0" index="0" disallow="tram rail_urban rail rail_electric rail_fast ship container cable_car subway aircraft wheelchair scooter drone" speed="13.89" length="9.40" shape="647.49,1199.17 638.10,1199.60"/>
    </edge>
    <edge id=":10023965494_5" function="internal">
        <lane id=":10023965494_5_0" index="0" disallow="tram rail_urban rail rail_electric rail_fast ship container cable_car subway aircraft wheelchair scooter drone" speed="13.89" length="9.41" shape="637.95,1196.41 647.35,1195.98"/>
    </edge>
    <edge id=":10023965494_6" function="internal">
        <lane id=":10023965494_6_0" index="0" allow="pedestrian delivery bicycle" speed="6.91" length="3.23" shape="637.95,1196.41 640.69,1196.68 641.11,1196.90"/>
    </edge>
    <edge id=":10023965494_7" function="internal">
        <lane id=":10023965494_7_0" index="0" allow="pedestrian delivery bicycle" speed="6.91" length="6.94" shape="641.11,1196.90 642.71,1197.77 644.00,1199.69 644.56,1202.44"/>
    </edge>
    <edge id=":10023965495_0" function="internal">
        <lane id=":10023965495_0_0" index="0" allow="pedestrian delivery bicycle" speed="3.65" length="4.67" shape="645.20,1212.21 644.48,1213.46 643.70,1213.91 642.88,1213.56 642.00,1212.41"/>
    </edge>
    <edge id=":10023965496_0" function="internal">
        <lane id=":10023965496_0_0" index="0" allow="pedestrian delivery bicycle" speed="5.01" length="5.10" shape="603.14,1178.41 602.75,1177.05 602.03,1176.16 600.97,1175.73 599.58,1175.78"/>
    </edge>
    <edge id=":10023965496_1" function="internal">
        <lane id=":10023965496_1_0" index="0" allow="pedestrian delivery bicycle" speed="6.81" length="10.47" shape="603.14,1178.41 603.16,1175.52 604.11,1173.38 606.00,1172.00 608.83,1171.38"/>
    </edge>
    <edge id=":10023965496_2" function="internal">
        <lane id=":10023965496_2_0" index="0" allow="pedestrian delivery bicycle" speed="3.65" length="4.67" shape="603.14,1178.41 603.77,1177.12 604.51,1176.61 605.35,1176.90 606.31,1177.98"/>
    </edge>
    <edge id=":10023965496_3" function="internal">
        <lane id=":10023965496_3_0" index="0" allow="pedestrian delivery bicycle" speed="4.98" length="5.07" shape="609.07,1174.57 607.70,1174.87 606.78,1175.54 606.32,1176.58 606.31,1177.98"/>
    </edge>
    <edge id=":10023965496_4" function="internal">
        <lane id=":10023965496_4_0" index="0" disallow="tram rail_urban rail rail_electric rail_fast ship container cable_car subway aircraft wheelchair scooter drone" speed="13.89" length="9.57" shape="609.07,1174.57 606.24,1174.79 604.30,1174.99 602.38,1175.28 599.58,1175.78"/>
    </edge>
    <edge id=":10023965496_5" function="internal">
        <lane id=":10023965496_5_0" index="0" disallow="tram rail_urban rail rail_electric rail_fast ship container cable_car subway aircraft wheelchair scooter drone" speed="13.89" length="9.91" shape="599.01,1172.63 601.90,1172.11 603.89,1171.81 605.90,1171.61 608.83,1171.38"/>
    </edge>
    <edge id=":10023965496_6" function="internal">
        <lane id=":10023965496_6_0" index="0" allow="pedestrian delivery bicycle" speed="6.84" length="3.32" shape="599.01,1172.63 601.87,1172.53 602.29,1172.70"/>
    </edge>
    <edge id=":10023965496_7" function="internal">
        <lane id=":10023965496_7_0" index="0" allow="pedestrian delivery bicycle" speed="6.84" length="7.11" shape="602.29,1172.70 604.04,1173.39 605.52,1175.20 606.31,1177.98"/>
    </edge>
    <edge id=":10023965497_0" function="internal">
        <lane id=":10023965497_0_0" index="0" allow="pedestrian delivery bicycle" speed="5.04" length="5.18" shape="606.03,1204.26 605.83,1202.88 605.20,1201.92 604.16,1201.37 602.71,1201.24"/>
    </edge>
    <edge id=":10023965497_1" function="internal">
        <lane id=":10023965497_1_0" index="0" allow="pedestrian delivery bicycle" speed="5.56" length="9.62" shape="606.03,1204.26 606.02,1201.40 605.94,1199.45 605.74,1197.50 605.37,1194.67"/>
    </edge>
    <edge id=":10023965497_2" function="internal">
        <lane id=":10023965497_2_0" index="0" allow="pedestrian delivery bicycle" speed="6.98" length="10.18" shape="606.03,1204.26 606.41,1201.45 607.55,1199.41 609.45,1198.12 612.11,1197.60"/>
    </edge>
    <edge id=":10023965497_3" function="internal">
        <lane id=":10023965497_3_0" index="0" allow="pedestrian delivery bicycle" speed="3.65" length="4.67" shape="606.03,1204.26 606.83,1203.06 607.63,1202.66 608.43,1203.06 609.23,1204.26"/>
    </edge>
    <edge id=":10023965497_4" function="internal">
        <lane id=":10023965497_4_0" index="0" allow="pedestrian delivery bicycle" speed="5.19" length="5.18" shape="612.26,1200.80 610.93,1201.07 609.99,1201.73 609.42,1202.80 609.23,1204.26"/>
    </edge>
    <edge id=":10023965497_5" function="internal">
        <lane id=":10023965497_5_0" index="0" disallow="tram rail_urban rail rail_electric rail_fast ship container cable_car subway aircraft wheelchair scooter drone" speed="13.89" length="9.56" shape="612.26,1200.80 602.71,1201.24"/>
    </edge>
    <edge id=":10023965497_6" function="internal">
        <lane id=":10023965497_6_0" index="0" allow="pedestrian delivery bicycle" speed="7.14" length="1.73" shape="612.26,1200.80 610.54,1200.62"/>
    </edge>
    <edge id=":10023965497_14" function="internal">
        <lane id=":10023965497_14_0" index="0" allow="pedestrian delivery bicycle" speed="7.14" length="8.59" shape="610.54,1200.62 609.57,1200.52 607.53,1199.41 606.13,1197.46 605.37,1194.67"/>
    </edge>
    <edge id=":10023965497_7" function="internal">
        <lane id=":10023965497_7_0" index="0" allow="pedestrian delivery bicycle" speed="5.40" length="5.49" shape="608.54,1194.24 608.94,1195.76 609.67,1196.83 610.73,1197.44 612.11,1197.60"/>
    </edge>
    <edge id=":10023965497_8" function="internal">
        <lane id=":10023965497_8_0" index="0" allow="pedestrian delivery bicycle" speed="5.56" length="10.06" shape="608.54,1194.24 608.93,1197.19 609.14,1199.23 609.22,1201.28 609.23,1204.26"/>
    </edge>
    <edge id=":10023965497_9" function="internal">
        <lane id=":10023965497_9_0" index="0" allow="pedestrian delivery bicycle" speed="6.79" length="10.62" shape="608.54,1194.24 608.52,1197.18 607.54,1199.33 605.60,1200.68 602.71,1201.24"/>
    </edge>
    <edge id=":10023965497_10" function="internal">
        <lane id=":10023965497_10_0" index="0" allow="pedestrian delivery bicycle" speed="3.65" length="4.67" shape="608.54,1194.24 607.91,1195.53 607.17,1196.04 606.32,1195.75 605.37,1194.67"/>
    </edge>
    <edge id=":10023965497_11" function="internal">
        <lane id=":10023965497_11_0" index="0" allow="pedestrian delivery bicycle" speed="4.95" length="5.11" shape="602.56,1198.04 603.95,1197.77 604.88,1197.12 605.36,1196.09 605.37,1194.67"/>
    </edge>
    <edge id=":10023965497_12" function="internal">
        <lane id=":10023965497_12_0" index="0" disallow="tram rail_urban rail rail_electric rail_fast ship container cable_car subway aircraft wheelchair scooter drone" speed="13.89" length="9.56" shape="602.56,1198.04 612.11,1197.60"/>
    </edge>
    <edge id=":10023965497_13" function="internal">
        <lane id=":10023965497_13_0" index="0" allow="pedestrian delivery bicycle" speed="6.86" length="1.79" shape="602.56,1198.04 604.34,1198.21"/>
    </edge>
    <edge id=":10023965497_15" function="internal">
        <lane id=":10023965497_15_0" index="0" allow="pedestrian delivery bicycle" speed="6.86" length="8.72" shape="604.34,1198.21 605.48,1198.31 607.56,1199.44 608.81,1201.42 609.23,1204.26"/>
    </edge>
    <edge id=":10023965498_0" function="internal">
        <lane id=":10023965498_0_0" index="0" allow="pedestrian delivery bicycle" speed="3.65" length="4.67" shape="609.26,1234.50 608.46,1235.70 607.66,1236.10 606.86,1235.70 606.06,1234.50"/>
    </edge>
    <edge id=":10023965500_0" function="internal">
        <lane id=":10023965500_0_0" index="0" disallow="tram rail_urban rail rail_electric rail_fast ship container cable_car subway aircraft wheelchair scooter drone" speed="2.78" length="4.67" shape="555.64,1158.55 554.29,1158.05 553.71,1157.36 553.92,1156.49 554.90,1155.43"/>
    </edge>
    <edge id=":10023965504_0" function="internal">
        <lane id=":10023965504_0_0" index="0" disallow="tram rail_urban rail rail_electric rail_fast ship container cable_car subway aircraft wheelchair scooter drone" speed="2.78" length="9.56" shape="639.80,1103.35 638.88,1100.91 637.39,1099.37 635.32,1098.71 632.69,1098.94"/>
    </edge>
    <edge id=":10023965504_1" function="internal">
        <lane id=":10023965504_1_0" index="0" disallow="tram rail_urban rail rail_electric rail_fast ship container cable_car subway aircraft wheelchair scooter drone" speed="2.78" length="14.15" shape="639.80,1103.35 636.27,1089.65"/>
    </edge>
    <edge id=":10023965504_2" function="internal">
        <lane id=":10023965504_2_0" index="0" disallow="tram rail_urban rail rail_electric rail_fast ship container cable_car subway aircraft wheelchair scooter drone" speed="2.78" length="14.32" shape="639.80,1103.35 639.51,1099.42 640.56,1096.38 642.95,1094.22 646.68,1092.96"/>
    </edge>
    <edge id=":10023965504_3" function="internal">
        <lane id=":10023965504_3_0" index="0" disallow="tram rail_urban rail rail_electric rail_fast ship container cable_car subway aircraft wheelchair scooter drone" speed="2.78" length="4.67" shape="639.80,1103.35 640.32,1102.01 641.02,1101.44 641.89,1101.66 642.93,1102.66"/>
    </edge>
    <edge id=":10023965504_4" function="internal">
        <lane id=":10023965504_4_0" index="0" disallow="tram rail_urban rail rail_electric rail_fast ship container cable_car subway aircraft wheelchair scooter drone" speed="2.78" length="9.03" shape="647.27,1096.10 644.91,1096.90 643.40,1098.26 642.74,1100.18 642.93,1102.66"/>
    </edge>
    <edge id=":10023965504_5" function="internal">
        <lane id=":10023965504_5_0" index="0" disallow="tram rail_urban rail rail_electric rail_fast ship container cable_car subway aircraft wheelchair scooter drone" speed="2.78" length="14.85" shape="647.27,1096.10 632.69,1098.94"/>
    </edge>
    <edge id=":10023965504_6" function="internal">
        <lane id=":10023965504_6_0" index="0" disallow="tram rail_urban rail rail_electric rail_fast ship container cable_car subway aircraft wheelchair scooter drone" speed="2.78" length="13.66" shape="647.27,1096.10 643.95,1095.99 640.65,1094.68 637.90,1092.47 636.27,1089.65"/>
    </edge>
    <edge id=":10023965504_7" function="internal">
        <lane id=":10023965504_7_0" index="0" disallow="tram rail_urban rail rail_electric rail_fast ship container cable_car subway aircraft wheelchair scooter drone" speed="2.78" length="4.67" shape="647.27,1096.10 645.94,1095.54 645.40,1094.82 645.65,1093.96 646.68,1092.96"/>
    </edge>
    <edge id=":10023965504_8" function="internal">
        <lane id=":10023965504_8_0" index="0" disallow="tram rail_urban rail rail_electric rail_fast ship container cable_car subway aircraft wheelchair scooter drone" speed="2.78" length="9.45" shape="639.33,1088.73 640.39,1090.98 641.96,1092.44 644.06,1093.10 646.68,1092.96"/>
    </edge>
    <edge id=":10023965504_9" function="internal">
        <lane id=":10023965504_9_0" index="0" disallow="tram rail_urban rail rail_electric rail_fast ship container cable_car subway aircraft wheelchair scooter drone" speed="2.78" length="14.38" shape="639.33,1088.73 642.93,1102.66"/>
    </edge>
    <edge id=":10023965504_10" function="internal">
        <lane id=":10023965504_10_0" index="0" disallow="tram rail_urban rail rail_electric rail_fast ship container cable_car subway aircraft wheelchair scooter drone" speed="2.78" length="14.08" shape="639.33,1088.73 639.82,1092.41 638.88,1095.34 636.50,1097.52 632.69,1098.94"/>
    </edge>
    <edge id=":10023965504_11" function="internal">
        <lane id=":10023965504_11_0" index="0" disallow="tram rail_urban rail rail_electric rail_fast ship container cable_car subway aircraft wheelchair scooter drone" speed="2.78" length="4.67" shape="639.33,1088.73 638.91,1090.11 638.26,1090.72 637.38,1090.57 636.27,1089.65"/>
    </edge>
    <edge id=":10023965504_12" function="internal">
        <lane id=":10023965504_12_0" index="0" disallow="tram rail_urban rail rail_electric rail_fast ship container cable_car subway aircraft wheelchair scooter drone" speed="2.78" length="8.58" shape="632.10,1095.79 634.46,1094.92 635.95,1093.61 636.55,1091.85 636.27,1089.65"/>
    </edge>
    <edge id=":10023965504_13" function="internal">
        <lane id=":10023965504_13_0" index="0" disallow="tram rail_urban rail rail_electric rail_fast ship container cable_car subway aircraft wheelchair scooter drone" speed="2.78" length="14.86" shape="632.10,1095.79 646.68,1092.96"/>
    </edge>
    <edge id=":10023965504_14" function="internal">
        <lane id=":10023965504_14_0" index="0" disallow="tram rail_urban rail rail_electric rail_fast ship container cable_car subway aircraft wheelchair scooter drone" speed="2.78" length="13.86" shape="632.10,1095.79 635.42,1095.87 638.73,1097.30 641.43,1099.69 642.93,1102.66"/>
    </edge>
    <edge id=":10023965504_15" function="internal">
        <lane id=":10023965504_15_0" index="0" disallow="tram rail_urban rail rail_electric rail_fast ship container cable_car subway aircraft wheelchair scooter drone" speed="2.78" length="4.68" shape="632.10,1095.79 633.42,1096.36 633.97,1097.07 633.72,1097.93 632.69,1098.94"/>
    </edge>
    <edge id=":10023965505_0" function="internal">
        <lane id=":10023965505_0_0" index="0" disallow="tram rail_urban rail rail_electric rail_fast ship container cable_car subway aircraft wheelchair scooter drone" speed="2.78" length="4.67" shape="631.81,1074.68 632.23,1073.30 632.88,1072.69 633.76,1072.84 634.87,1073.76"/>
    </edge>
    <edge id=":10023965531_0" function="internal">
        <lane id=":10023965531_0_0" index="0" disallow="tram rail_urban rail rail_electric rail_fast ship container cable_car subway aircraft wheelchair scooter drone" speed="6.21" length="8.90" shape="708.08,1033.39 707.59,1031.00 706.43,1029.44 704.59,1028.70 702.07,1028.79"/>
    </edge>
    <edge id=":10023965531_1" function="internal">
        <lane id=":10023965531_1_0" index="0" disallow="tram rail_urban rail rail_electric rail_fast ship container cable_car subway aircraft wheelchair scooter drone" speed="22.22" length="14.39" shape="708.08,1033.39 707.78,1029.75 707.32,1026.25 706.75,1022.75 706.12,1019.15"/>
    </edge>
    <edge id=":10023965531_2" function="internal">
        <lane id=":10023965531_2_0" index="0" disallow="tram rail_urban rail rail_electric rail_fast ship container cable_car subway aircraft wheelchair scooter drone" speed="3.66" length="1.45" shape="708.08,1033.39 708.66,1032.06"/>
    </edge>
    <edge id=":10023965531_9" function="internal">
        <lane id=":10023965531_9_0" index="0" disallow="tram rail_urban rail rail_electric rail_fast ship container cable_car subway aircraft wheelchair scooter drone" speed="3.66" length="3.25" shape="708.66,1032.06 709.39,1031.53 710.25,1031.79 711.25,1032.84"/>
    </edge>
    <edge id=":10023965531_3" function="internal">
        <lane id=":10023965531_3_0" index="0" disallow="tram rail_urban rail rail_electric rail_fast ship container cable_car subway aircraft wheelchair scooter drone" speed="22.22" length="14.39" shape="709.28,1018.60 709.91,1022.20 710.49,1025.70 710.96,1029.21 711.25,1032.84"/>
    </edge>
    <edge id=":10023965531_4" function="internal">
        <lane id=":10023965531_4_0" index="0" disallow="tram rail_urban rail rail_electric rail_fast ship container cable_car subway aircraft wheelchair scooter drone" speed="8.02" length="4.05" shape="709.28,1018.60 709.38,1022.49 709.33,1022.64"/>
    </edge>
    <edge id=":10023965531_5" function="internal">
        <lane id=":10023965531_5_0" index="0" disallow="tram rail_urban rail rail_electric rail_fast ship container cable_car subway aircraft wheelchair scooter drone" speed="3.65" length="1.44" shape="709.28,1018.60 708.69,1019.92"/>
    </edge>
    <edge id=":10023965531_10" function="internal">
        <lane id=":10023965531_10_0" index="0" disallow="tram rail_urban rail rail_electric rail_fast ship container cable_car subway aircraft wheelchair scooter drone" speed="8.02" length="10.17" shape="709.33,1022.64 708.22,1025.48 705.78,1027.58 702.07,1028.79"/>
    </edge>
    <edge id=":10023965531_11" function="internal">
        <lane id=":10023965531_11_0" index="0" disallow="tram rail_urban rail rail_electric rail_fast ship container cable_car subway aircraft wheelchair scooter drone" speed="3.65" length="3.23" shape="708.69,1019.92 707.97,1020.45 707.11,1020.19 706.12,1019.15"/>
    </edge>
    <edge id=":10023965531_6" function="internal">
        <lane id=":10023965531_6_0" index="0" disallow="tram rail_urban rail rail_electric rail_fast ship container cable_car subway aircraft wheelchair scooter drone" speed="6.53" length="9.07" shape="701.52,1025.64 703.89,1024.87 705.45,1023.53 706.19,1021.62 706.12,1019.15"/>
    </edge>
    <edge id=":10023965531_7" function="internal">
        <lane id=":10023965531_7_0" index="0" disallow="tram rail_urban rail rail_electric rail_fast ship container cable_car subway aircraft wheelchair scooter drone" speed="7.68" length="14.23" shape="701.52,1025.64 705.61,1025.48 708.59,1026.62 710.48,1029.08 711.25,1032.84"/>
    </edge>
    <edge id=":10023965531_8" function="internal">
        <lane id=":10023965531_8_0" index="0" disallow="tram rail_urban rail rail_electric rail_fast ship container cable_car subway aircraft wheelchair scooter drone" speed="3.65" length="4.67" shape="701.52,1025.64 702.84,1026.22 703.37,1026.94 703.11,1027.79 702.07,1028.79"/>
    </edge>
    <edge id=":10023965534_0" function="internal">
        <lane id=":10023965534_0_0" index="0" disallow="tram rail_urban rail rail_electric rail_fast ship container cable_car subway aircraft wheelchair scooter drone" speed="3.65" length="4.67" shape="619.29,1046.86 617.93,1046.38 617.35,1045.70 617.54,1044.82 618.51,1043.76"/>
    </edge>
    <edge id=":10023965537_0" function="internal">
        <lane id=":10023965537_0_0" index="0" disallow="tram rail_urban rail rail_electric rail_fast ship container cable_car subway aircraft wheelchair scooter drone" speed="3.65" length="4.67" shape="650.21,1063.09 648.85,1062.61 648.27,1061.93 648.46,1061.06 649.43,1059.99"/>
    </edge>
    <edge id=":10023965539_0" function="internal">
        <lane id=":10023965539_0_0" index="0" disallow="tram rail_urban rail rail_electric rail_fast ship container cable_car subway aircraft wheelchair scooter drone" speed="2.78" length="13.83" shape="636.21,1089.45 632.26,1076.20"/>
    </edge>
    <edge id=":10023965539_1" function="internal">
        <lane id=":10023965539_1_0" index="0" disallow="tram rail_urban rail rail_electric rail_fast ship container cable_car subway aircraft wheelchair scooter drone" speed="2.78" length="13.96" shape="636.21,1089.45 635.70,1085.76 636.60,1082.82 638.91,1080.64 642.63,1079.22"/>
    </edge>
    <edge id=":10023965539_2" function="internal">
        <lane id=":10023965539_2_0" index="0" disallow="tram rail_urban rail rail_electric rail_fast ship container cable_car subway aircraft wheelchair scooter drone" speed="2.78" length="4.67" shape="636.21,1089.45 636.63,1088.08 637.29,1087.46 638.17,1087.62 639.28,1088.54"/>
    </edge>
    <edge id=":10023965539_3" function="internal">
        <lane id=":10023965539_3_0" index="0" disallow="tram rail_urban rail rail_electric rail_fast ship container cable_car subway aircraft wheelchair scooter drone" speed="2.78" length="8.58" shape="643.36,1082.33 641.03,1083.21 639.57,1084.54 638.98,1086.31 639.28,1088.54"/>
    </edge>
    <edge id=":10023965539_4" function="internal">
        <lane id=":10023965539_4_0" index="0" disallow="tram rail_urban rail rail_electric rail_fast ship container cable_car subway aircraft wheelchair scooter drone" speed="2.78" length="14.28" shape="643.36,1082.33 639.42,1082.71 636.25,1081.82 633.87,1079.65 632.26,1076.20"/>
    </edge>
    <edge id=":10023965539_5" function="internal">
        <lane id=":10023965539_5_0" index="0" disallow="tram rail_urban rail rail_electric rail_fast ship container cable_car subway aircraft wheelchair scooter drone" speed="2.78" length="4.67" shape="643.36,1082.33 642.01,1081.83 641.44,1081.14 641.64,1080.27 642.63,1079.22"/>
    </edge>
    <edge id=":10023965539_6" function="internal">
        <lane id=":10023965539_6_0" index="0" disallow="tram rail_urban rail rail_electric rail_fast ship container cable_car subway aircraft wheelchair scooter drone" speed="2.78" length="9.33" shape="635.33,1075.29 636.37,1077.51 637.94,1078.91 640.02,1079.48 642.63,1079.22"/>
    </edge>
    <edge id=":10023965539_7" function="internal">
        <lane id=":10023965539_7_0" index="0" disallow="tram rail_urban rail rail_electric rail_fast ship container cable_car subway aircraft wheelchair scooter drone" speed="2.78" length="13.83" shape="635.33,1075.29 639.28,1088.54"/>
    </edge>
    <edge id=":10023965539_8" function="internal">
        <lane id=":10023965539_8_0" index="0" disallow="tram rail_urban rail rail_electric rail_fast ship container cable_car subway aircraft wheelchair scooter drone" speed="2.78" length="4.67" shape="635.33,1075.29 634.90,1076.66 634.25,1077.28 633.37,1077.12 632.26,1076.20"/>
    </edge>
    <edge id=":10023965540_0" function="internal">
        <lane id=":10023965540_0_0" index="0" disallow="tram rail_urban rail rail_electric rail_fast ship container cable_car subway aircraft wheelchair scooter drone" speed="2.78" length="4.67" shape="654.97,1076.30 656.32,1076.81 656.90,1077.49 656.69,1078.36 655.71,1079.42"/>
    </edge>
    <edge id=":10023965545_0" function="internal">
        <lane id=":10023965545_0_0" index="0" disallow="tram rail_urban rail rail_electric rail_fast ship container cable_car subway aircraft wheelchair scooter drone" speed="3.65" length="4.67" shape="821.29,923.28 822.19,922.16 823.02,921.83 823.78,922.29 824.47,923.56"/>
    </edge>
    <edge id=":10023965547_0" function="internal">
        <lane id=":10023965547_0_0" index="0" disallow="tram rail_urban rail rail_electric rail_fast ship container cable_car subway aircraft wheelchair scooter drone" speed="3.65" length="4.67" shape="834.61,913.79 835.37,912.57 836.16,912.14 836.97,912.51 837.81,913.69"/>
    </edge>
    <edge id=":10023965548_0" function="internal">
        <lane id=":10023965548_0_0" index="0" disallow="tram rail_urban rail rail_electric rail_fast ship container cable_car subway aircraft wheelchair scooter drone" speed="6.50" length="9.03" shape="876.09,907.51 875.52,905.10 874.32,903.45 872.48,902.57 870.01,902.45"/>
    </edge>
    <edge id=":10023965548_1" function="internal">
        <lane id=":10023965548_1_0" index="0" disallow="tram rail_urban rail rail_electric rail_fast ship container cable_car subway aircraft wheelchair scooter drone" speed="13.89" length="14.40" shape="876.09,907.51 874.81,893.17"/>
    </edge>
    <edge id=":10023965548_2" function="internal">
        <lane id=":10023965548_2_0" index="0" disallow="tram rail_urban rail rail_electric rail_fast ship container cable_car subway aircraft wheelchair scooter drone" speed="3.65" length="1.44" shape="876.09,907.51 876.78,906.24"/>
    </edge>
    <edge id=":10023965548_9" function="internal">
        <lane id=":10023965548_9_0" index="0" disallow="tram rail_urban rail rail_electric rail_fast ship container cable_car subway aircraft wheelchair scooter drone" speed="3.65" length="3.23" shape="876.78,906.24 877.54,905.77 878.37,906.10 879.28,907.22"/>
    </edge>
    <edge id=":10023965548_3" function="internal">
        <lane id=":10023965548_3_0" index="0" disallow="tram rail_urban rail rail_electric rail_fast ship container cable_car subway aircraft wheelchair scooter drone" speed="13.89" length="14.40" shape="878.00,892.88 879.28,907.22"/>
    </edge>
    <edge id=":10023965548_4" function="internal">
        <lane id=":10023965548_4_0" index="0" disallow="tram rail_urban rail rail_electric rail_fast ship container cable_car subway aircraft wheelchair scooter drone" speed="8.02" length="4.06" shape="878.00,892.88 877.79,896.76 877.71,896.92"/>
    </edge>
    <edge id=":10023965548_5" function="internal">
        <lane id=":10023965548_5_0" index="0" disallow="tram rail_urban rail rail_electric rail_fast ship container cable_car subway aircraft wheelchair scooter drone" speed="3.65" length="1.44" shape="878.00,892.88 877.31,894.15"/>
    </edge>
    <edge id=":10023965548_10" function="internal">
        <lane id=":10023965548_10_0" index="0" disallow="tram rail_urban rail rail_electric rail_fast ship container cable_car subway aircraft wheelchair scooter drone" speed="8.02" length="10.14" shape="877.71,896.92 876.39,899.65 873.79,901.54 870.01,902.45"/>
    </edge>
    <edge id=":10023965548_11" function="internal">