<?xml version="1.0" encoding="UTF-8"?>

<!-- generated on 2026-01-19 14:26:57.737378 by Eclipse SUMO randomTrips.py v1_25_0+0000-ac6c5a6752d
<configuration>
    <net-file value="C:\Users\Shashanka\Desktop\Reinforcement_Signal_Optimizer_EL5\Reinforcement_Signal_Optimizer\backend\app\sumo\networks\converted\SJ_hosur_sarjapur.net.xml"/>
    <route-file value="C:\Users\Shashanka\Desktop\Reinforcement_Signal_Optimizer_EL5\Reinforcement_Signal_Optimizer\backend\app\sumo\networks\converted\SJ_hosur_sarjapur.rou.xml"/>
    <allow-fringe value="True"/>
    <period value="2.0"/>
</configuration>
-->

<!-- generated on 2026-01-19T14:26:57.447142+05:30 by Eclipse SUMO duarouter 1.25.0
<duarouterConfiguration xmlns:xsi="http://www.w3.org/2001/XMLSchema-instance" xsi:noNamespaceSchemaLocation="http://sumo.dlr.de/xsd/duarouterConfiguration.xsd">

    <input>
        <net-file value="C:\Users\Shashanka\Desktop\Reinforcement_Signal_Optimizer_EL5\Reinforcement_Signal_Optimizer\backend\app\sumo\networks\converted\SJ_hosur_sarjapur.net.xml"/>
        <route-files value="trips.trips.xml"/>
    </input>

    <output>
        <output-file value="C:\Users\Shashanka\Desktop\Reinforcement_Signal_Optimizer_EL5\Reinforcement_Signal_Optimizer\backend\app\sumo\networks\converted\SJ_hosur_sarjapur.rou.xml"/>
        <alternatives-output value="NUL"/>
    </output>

    <time>
        <begin value="0"/>
        <end value="3600.0"/>
    </time>

    <report>
        <no-warnings value="true"/>
        <ignore-errors value="true"/>
        <no-step-log value="true"/>
    </report>

</duarouterConfiguration>
-->

<routes xmlns:xsi="http://www.w3.org/2001/XMLSchema-instance" xsi:noNamespaceSchemaLocation="http://sumo.dlr.de/xsd/routes_file.xsd">
    <vehicle id="0" depart="0.00">
        <route edges="239438610#5 -655680595 -655680596#1 -655680596#0 655680597#2 -655680594 24231604#1 -1450643779 688433395#1 -323697675#7 -1109908406#2 -1109908407"/>
    </vehicle>
    <vehicle id="1" depart="2.00">
        <route edges="-309194367#3 1102829161 290639790#11 290639790#12 290639790#13 290639790#14 290639790#15 290639790#16 290639790#17 290639790#19 290639790#21 290639790#22 172853383#2 688824219#0 239438926 1459499822 1459499824 1031526548 1110164312#0 1110164312#1 1110164312#2 1110164312#3 1110164317 1110164320#0 1110164320#1 1110164320#2 1150874215#1 38042287#0 28186938#0 28186938#1 28186938#2 28186938#3 -28125818#2"/>
    </vehicle>
    <vehicle id="2" depart="4.00">
        <route edges="28120491#0 28120494#0 -27994589#0 40693552#9 40693552#10 40693552#11 40693552#12 40693552#13 290639791 290639790#1 290639790#3 290639790#4 290639790#6 290639790#7 290639790#8 147561889#0 147561889#1 147561889#2 147561889#3 147561889#4 147561889#5 147561889#7 -1322924308 -559785241#1 -559785241#0 -254053187 172853384#3 172853384#4 133763768#0 684917326#1 -264335226#1 -264335226#0 264335594#0"/>
    </vehicle>
    <vehicle id="3" depart="6.00">
        <route edges="40696209 -243896990#3 -243896990#2 -243896990#0 -27994589#5 -27994589#4 -27994589#3 -27994589#1 -27994589#0 40693552#9 40693552#10 40693552#11 40693552#12 40693552#13 290639791 290639790#1 290639790#3 290639790#4 290639790#6 290639790#7 1242182539#0 1242182539#1 -147561888#5 -147561888#4 309194363 -147561899#6 -147561899#5 -147561899#4 -147561899#3 -147561899#2 -147561899#1 -147561899#0"/>
    </vehicle>
    <vehicle id="4" depart="8.00">
        <route edges="-769260320 769260320 688824218#4 688824218#5 688824218#6 133763758 239438609 148210029 172853383#0 172853383#1 172853383#2 688824219#0 239438926 1459499822 1459499824 1031526548 1110164312#0 1110164312#1 1110164312#2 1110164312#3 150510724#1 150510724#2 269436416#0 -250768275#2 -250768275#1 250768278 -1165355037#1"/>
    </vehicle>
    <vehicle id="5" depart="10.00">
        <route edges="-28125800#0 28125800#0 28125800#1 1186158110"/>
    </vehicle>
    <vehicle id="6" depart="12.00">
        <route edges="-1123860236#1 27785752 1110164319#2 1110164319#3 1110164319#4 1110178545 1387944292 111814614#0 111814614#1 111814614#5 111814614#6 111814614#8 172853384#4 464465166#0 464465166#1 -559448742 -559448741 -147561889#5 -147561889#4 -147561889#3 -147561889#2 -147561889#1 -147561889#0 -290639790#8 -290639790#7 -290639790#6 -290639790#4 -290639790#3 -290639790#1 -290639790#0 -40693552#13 -40693552#12 27994380#0 27994380#1 27994380#2 27994380#4 27994380#5 27994380#6 -27994380#6"/>
    </vehicle>
    <vehicle id="7" depart="14.00">
        <route edges="243896990#0 243896990#2 243896990#3 243896990#4 243896990#5 243896990#6 40696212#0 40696213 40696200#1 40696200#2 40696200#3 40696200#4 243554072#2 243554072#3 243554072#4 243554072#5 694563706 688824218#2 688824218#3 688824218#4 688824218#5 688824218#6 172853384#0 172853384#1 172853384#3 172853384#4 133763768#0 684917326#1 -264335226#1 -264335226#0 310665109#0 310665109#1 -1427479668 1427479668"/>
    </vehicle>
    <vehicle id="8" depart="16.00">
        <route edges="-28125800#2 28125800#2 28125800#3 -558764104#0 28125818#1 28125818#2 28125818#5 1159872649#2 1150874214 1110164319#0 1110164319#1 1110164319#2 1110164319#3 1110164319#4 1110178545 1387944292 111814614#0 111814614#1 111814614#5 111814614#6 111814614#8 172853384#4 464465166#0 -1322924307 -1349146380 -254053182#1 -254053182#0 -147575196#4 147575144#1"/>
    </vehicle>
    <vehicle id="9" depart="18.00">
        <route edges="310665094 -40693552#9 27994589#0 27994589#1 27994589#3 27994589#4 27994589#5 243896990#0 243896990#2 243896990#3 243896990#4 243896990#5 243896990#6 40696212#0 40696213 40696200#1 40696200#2 40696200#3 40696200#4 243554072#2 243554072#3 243554072#4 243554072#5 694563705#0 694563705#2 -799715255#0 -1102833426#0"/>
    </vehicle>
    <vehicle id="10" depart="20.00">
        <route edges="694335199 -800240408#0 -27994380#1 -27994380#0 40693552#12 40693552#13 290639791 290639790#1 290639790#3 290639790#4 290639790#6 290639790#7 290639790#8 290639790#10 290639790#11 290639790#12 290639790#13 290639790#14 290639790#15 290639790#16 290639790#17 290639790#19 290639790#21 290639790#22 172853383#2 688824219#0 239438926 1459499822 1372636963 27932070#0 27932070#1 27932070#2 389341679 -389341679"/>
    </vehicle>
    <vehicle id="11" depart="22.00">
        <route edges="-147575119#1 -147575119#0 -147575122 -383732625#3 -559785242#0 -254053187 172853384#3 172853384#4 133763768#0 684917326#1 684917326#2 684917326#3 172853382#0 172853382#1 172853382#2 172853382#3 172853382#4 172853382#5 172853382#7 1453814098#0 1453814098#1 -147575130#3 -147575130#2 -147575130#1"/>
    </vehicle>
    <vehicle id="12" depart="24.00">
        <route edges="328436448 -328436448 -328436446#1 -328436446#0 -328436445#0 -363083979#2 -363083979#1 -363083979#0 -310665109#1 -310665109#0 264335594#0 111814614#5 111814614#6 111814614#8 172853384#4 464465166#0 464465166#1 464465166#2 172853383#0 -27994538#3 -27994538#2 147575129#1 147575175#2"/>
    </vehicle>
    <vehicle id="13" depart="26.00">
        <route edges="310665091 290639793#7 309191367#0 -309191372 40693552#1 40693552#2 40693552#4 40693552#5 40693552#6 40693552#7 27994589#0"/>
    </vehicle>
    <vehicle id="14" depart="28.00">
        <route edges="1356890583 1318033033 328835371#0 328835371#1 328835371#2 1031526547#0 1031526547#1 1110164312#0 1110164312#1 1110164312#2 1110164312#3 1387944292 111814614#0 111814614#1 111814614#5 111814614#6 111814614#8 172853384#4 464465166#0 -1322924307 -1349146380 383732625#0 383732625#1 383732625#2 383732625#3 147575122 147575165#1 147575165#2 744806547"/>
    </vehicle>
    <vehicle id="15" depart="30.00">
        <route edges="-631197284#1 -631197284#0 -1311668058 27785750 1110164319#4 1110178545 1387944292 111814614#0 111814614#1 111814614#5 111814614#6 684917326#1 684917326#2 684917326#3 172853382#0 172853382#1 172853382#2 172853382#3 172853382#4 172853382#5 172853382#7 1453814098#0"/>
    </vehicle>
    <vehicle id="16" depart="32.00">
        <route edges="320774373#2 309194366#0 309194366#1 309194366#3 147561888#10 147561877#2 290639790#16 290639790#17 290639790#19 290639790#21 290639790#22 172853383#2 688824219#0 239438926 1459499822 1459499824 1459499823 160334705#0"/>
    </vehicle>
    <vehicle id="17" depart="34.00">
        <route edges="38042287#7 -38042287#7 -38042287#6 -38042287#5 -38042287#3 -38042287#2 -38042287#0 1150874214 1110164319#0 1110164319#1 1110164319#2 1110164319#3 1110164319#4 1110178545 1387944292 111814614#0 111814614#1 111814614#5 111814614#6 111814614#8 172853384#4 464465166#0 464465166#1 -559448742 -559448741 -147561889#5 -147561889#4 -147561889#3 -147561889#2 -147561889#1 -147561889#0 -147561896#3 -147561896#2 -147561888#6 -147561888#5 -147561888#4 309194363 -147561899#6 -147561899#5 -147561899#4 147561899#4"/>
    </vehicle>
    <vehicle id="18" depart="36.00">
        <route edges="27931980#0 27931980#1 27931980#2 1055574130#0 1055574130#1 1356890583 1318033033 328835371#0 328835371#1 328835371#2 1031526547#0 1031526547#1 1110164312#0 1110164312#1 1110164312#2 1110164312#3 1387944292 111814614#0 111814614#1 111814614#5 111814614#6 111814614#8 172853384#4 464465166#0 464465166#1 -559448742 -559448741 -147561889#5 -147561889#4 -147561889#3 -147561889#2 -147561889#1 -147561889#0 -290639790#8 1242182539#0 -1242182539#0"/>
    </vehicle>
    <vehicle id="19" depart="38.00">
        <route edges="-28186940#1 -28186940#0 -28186938#1 -28186938#0 -38042287#0 1150874214 1110164319#0 1110164319#1 1110164319#2 1110164319#3 1110164319#4 1110178545 1387944292 111814614#0 111814614#1 111814614#5 111814614#6 111814614#8 172853384#4 464465166#0 464465166#1 -559448742 -559448741 -147561889#5 -147561889#4 -147561889#3 -147561889#2 -147561889#1 -147561889#0 -290639790#8 -290639790#7 -290639790#6 -290639790#4 -290639790#3 -290639790#1 -290639790#0 -40693552#13 -40693552#12 -40693552#11 -40693552#10 -40693552#9 27994589#0 27994589#1 27994589#3 27994589#4 27994589#5 243896990#0 310665104 -310665104"/>
    </vehicle>
    <vehicle id="20" depart="40.00">
        <route edges="-147561889#2 -147561889#1 147575138#0 -309194367#5 -290639790#12"/>
    </vehicle>
    <vehicle id="21" depart="42.00">
        <route edges="-147575139 -290639790#6 -290639790#4 -290639790#3 -290639790#1 -290639790#0 -40693552#13 -40693552#12 -40693552#11 -40693552#10 -40693552#9 -40693552#7 -40693552#6 -40693552#5 -40693552#4 -40693552#2 -40693552#1 309191372 -309191367#0 -290639793#7 -310665091"/>
    </vehicle>
    <vehicle id="22" depart="44.00">
        <route edges="239438609 148210029 172853383#0 -27994538#3 -27994538#2 -27994538#1 -27994538#0 -290639790#14 -290639790#13 -290639790#12 -290639790#11 -290639790#10 -290639790#8 -290639790#7 -290639790#6 -290639790#4 -290639790#3 -290639790#1 545599469 -545599469"/>
    </vehicle>
    <vehicle id="23" depart="46.00">
        <route edges="-558771257#1 -694563704#1 -694563703 -147575130#0 -243554072#3 -243554072#2 -243554072#0 -40696200#3 -40696200#2 -40696200#1 -40696213 -40696212#0 -243896990#6 -243896990#5 -243896990#4 -243896990#3 28120461#0 28120461#1 28120461#2 -28120461#2"/>
    </vehicle>
    <vehicle id="24" depart="48.00">
        <route edges="-309194364#0 309194364#0 -147561888#7 147561896#2 147561896#3 147561889#0 147561889#1 147561889#2 147561889#3 147561889#4 147561889#5 147561889#7 -1322924308 -559785241#1 -559785241#0 -254053187 172853384#3 172853384#4 133763768#0 684917326#1"/>
    </vehicle>
    <vehicle id="25" depart="50.00">
        <route edges="243554072#4 243554072#5 694563706 688824218#2 688824218#3 688824218#4 688824218#5 688824218#6 172853384#0 -254053176#3 -254053176#2 -383732625#3 -383732625#2 -383732625#1 -254053180#2 -254053180#1 -254053180#0 -147575196#4 -147575196#3 -147575196#2 -147575196#1 147575196#1"/>
    </vehicle>
    <vehicle id="26" depart="52.00">
        <route edges="-27445936#7 -631197284#1 -631197284#0 -1311668058 27785750 1110164319#4 1110178545 1387944292 111814614#0 111814614#1 111814614#5 111814614#6 111814614#8 172853384#4 464465166#0 464465166#1 464465166#2 172853383#0 -27994538#3 27994538#3"/>
    </vehicle>
    <vehicle id="27" depart="54.00">
        <route edges="-269436421#1 -269436421#0 -631197284#2"/>
    </vehicle>
    <vehicle id="28" depart="56.00">
        <route edges="800628088 -800628089#1 -800628089#0 239438610#4 239438610#5"/>
    </vehicle>
    <vehicle id="29" depart="58.00">
        <route edges="147561877#2 290639790#16 290639790#17 290639790#19 290639790#21 290639790#22 172853383#2 688824219#0 239438926 1459499822 1459499824 1031526548 1110164312#0 1110164312#1 1110164312#2 1110164312#3 1110164317 1110164320#0 1110164320#1 1110164320#2 1150874215#1 38042287#0 38042287#2 38042287#3 27445936#0 27445936#1 27445936#2 27445936#3"/>
    </vehicle>
    <vehicle id="30" depart="60.00">
        <route edges="328436445#0 -328436445#0 -363083979#2 -363083979#1 -363083979#0 -310665109#1 -310665109#0 264335594#0 111814614#5 111814614#6 111814614#8 172853384#4 464465166#0 464465166#1 -559448742 -559448741 -147561889#5 -147561889#4 -147561889#3 -147561889#2 -147561889#1 -147561889#0 -290639790#8 -290639790#7 -290639790#6 -290639790#4 -290639790#3 -290639790#1 -290639790#0 -40693552#13 -40693552#12 27994380#0 27994380#1 27994380#2 309191365#0 309191365#1 309191365#2"/>
    </vehicle>
    <vehicle id="31" depart="62.00">
        <route edges="-28186944#0 -28186938#2 -28186938#1 -28186938#0 -38042287#0 1150874214 1110164319#0 1110164319#1 1110164319#2 1110164319#3 1110164319#4 1110178545 1110164315#1 1110164315#2 1110164315#3 694991480 1372636962 27932070#0 27932070#1 27932070#2 27932070#3 27932070#4 27932070#5 -27932152#6 -27932152#5 -27932152#4 -27932152#3 1102829152 -1183677529"/>
    </vehicle>
    <vehicle id="32" depart="64.00">
        <route edges="-328436446#2 -328436446#1 -328436446#0 -328436445#0 -363083979#2 -363083979#1 -363083979#0 -310665109#1 -310665109#0 264335594#0 111814614#5 111814614#6 111814614#8 172853384#4 464465166#0 464465166#1 -559448742 -559448741 -147561889#5 -147561889#4 -147561889#3 -147561889#2 -147561889#1 -147561889#0 -147561896#3 -147561896#2 147561888#7 309194364#1 -309194364#1"/>
    </vehicle>
    <vehicle id="33" depart="66.00">
        <route edges="-28120491#0 40693552#7 27994589#0 27994589#1 27994589#3 27994589#4 27994589#5 243896990#0 243896990#2 243896990#3 243896990#4 243896990#5 243896990#6 40696212#0 40696213 40696200#1 40696200#2 40696200#3 40696200#4 243554072#2 243554072#3 243554072#4 243554072#5 694563706 688824218#2"/>
    </vehicle>
    <vehicle id="34" depart="68.00">
        <route edges="250768275#1 250768275#2 -269436416#0 24231604#0 24231604#1 24231604#2 24231604#3 1387944292 111814614#0 111814614#1 111814614#5 111814614#6 684917326#1 684917326#2 684917326#3 172853382#0 684915566#0 -694302708"/>
    </vehicle>
    <vehicle id="35" depart="70.00">
        <route edges="559650169#3 1110164318 1110178545 1387944292 111814614#0 111814614#1 111814614#5 111814614#6 111814614#8 172853384#4 464465166#0 464465166#1 -559448742 -559448741 -147561889#5 -147561889#4 -147561889#3 -147561889#2 -147561889#1 -147561889#0 -290639790#8 -290639790#7 -290639790#6 -290639790#4 -290639790#3 -290639790#1 -290639790#0 1227538903#0 1227538903#1 -688382572 1427478016#0 1427478016#1 1427478016#2 1102833439"/>
    </vehicle>
    <vehicle id="36" depart="72.00">
        <route edges="-309194360 147561899#2 147561899#3 147561899#4 147561899#5 147561899#6 -309194363 147561888#4 309194367#0 -1242182539#0 -290639790#7 -290639790#6 -290639790#4 -290639790#3 -290639790#1 -290639790#0 -40693552#13 -40693552#12 -40693552#11 -40693552#10 -40693552#9 -40693552#7 -40693552#6 -40693552#5 -40693552#4 -40693552#2 -40693552#1 309191372 -309191367#0 -290639793#7 -290639793#6"/>
    </vehicle>
    <vehicle id="37" depart="74.00">
        <route edges="147561888#3 147561888#4 309194367#0 -1242182539#0 -290639790#7 -290639790#6 -290639790#4 -290639790#3 -290639790#1 -290639790#0 -40693552#13 -40693552#12 27994380#0 27994380#1 27994380#2 27994380#4 27994380#5 27994380#6 27994380#8 27994380#9 27994380#10 -309193897#1 -309193897#0 -309193893#0"/>
    </vehicle>
    <vehicle id="38" depart="76.00">
        <route edges="147575130#2 147575130#3 688824218#0 688824218#1 -694563706 -243554072#5 -243554072#4 -243554072#3 -243554072#2 -243554072#0 -40696200#3 -40696200#2 40696214#0 40696214#1 40696214#2"/>
    </vehicle>
    <vehicle id="39" depart="78.00">
        <route edges="-694302716 -27994380#13 -27994380#12 -27994380#11 -27994380#10 -27994380#9 -27994380#8 -27994380#6 -27994380#5 -27994380#4 -27994380#2 -27994380#1 -27994380#0 40693552#12 40693552#13 290639791 290639790#1 290639790#3 290639790#4 290639790#6 290639790#7 290639790#8 290639790#10 290639790#11 290639790#12 290639790#13 290639790#14 290639790#15 290639790#16 290639790#17 290639790#19 290639790#21 290639790#22 172853383#2 688824219#0 239438926 1459499822 1459499824 1031526548 1110164312#0 1110164312#1 1110164312#2 1110164312#3 1110164317 1110164320#0 1110164320#1 1110164320#2 1150874215#1 38042287#0 28186938#0 28186938#1 28186938#2 28186938#3 -28125818#2 -28125818#1 558764104#0 558764104#1 -28125800#2 -28125800#1"/>
    </vehicle>
    <vehicle id="40" depart="80.00">
        <route edges="92196679#3 1393474724#0 1453814098#0 1453814098#1 688824218#0 688824218#1 688824218#2 688824218#3 688824218#4 688824218#5 688824218#6 172853384#0 -254053176#3 -254053176#2 -383732625#3 -383732625#2 -383732625#1 -254053180#2 -254053180#1 -254053180#0 -147575196#4 -147575196#3 -147575196#2 -147575196#1 -147575196#0 -290639790#4 -290639790#3 -290639790#1 -290639790#0 -40693552#13 -40693552#12 27994380#0 27994380#1 27994380#2 27994380#4 27994380#5 27994380#6 27994380#8 27994380#9 27994380#10 -309193897#1 -1227523736 -1102841594 1102841594 1227523736"/>
    </vehicle>
    <vehicle id="41" depart="82.00">
        <route edges="-147561899#6 -147561899#5 1442330370 -1242182539#3 -1242182539#2"/>
    </vehicle>
    <vehicle id="42" depart="84.00">
        <route edges="-147575172#0 -147561889#3 -147561889#2 -147561889#1 -147561889#0 290639790#10 290639790#11 290639790#12 290639790#13 290639790#14 290639790#15 290639790#16 290639790#17 290639790#19 290639790#21 290639790#22 172853383#2"/>
    </vehicle>
    <vehicle id="43" depart="86.00">
        <route edges="309194360 -309194360 147561899#2 147561899#3 147561899#4 147561899#5 147561899#6 -309194363 147561888#4 309194367#0 -1242182539#0 -290639790#7 -290639790#6 -290639790#4 -290639790#3 -290639790#1 -290639790#0 -40693552#13 -40693552#12 -40693552#11 -40693552#10 -40693552#9 27994589#0 27994589#1 27994589#3 27994589#4 27994589#5 243896990#0 243896990#2 243896990#3 243896990#4 243896990#5 243896990#6 40696212#0 40696213 40696200#1 40696200#2 40696200#3 40696200#4 243554072#2 243554072#3 243554072#4 243554072#5 694563706 688824218#2 688824218#3 -769260320"/>
    </vehicle>
    <vehicle id="44" depart="88.00">
        <route edges="-1442330370 147561899#5 147561899#6 -309194363 147561888#4 309194367#0 309194367#1 147561896#3 147561889#0 147561889#1 147561889#2 147561889#3 147561889#4 147561889#5 147561889#7 -1322924308 -559785241#1 -559785241#0 -254053187 172853384#3 172853384#4 133763768#0 684917326#1 684917326#2 684917326#3 172853382#0 172853382#1 172853382#2 172853382#3 172853382#4 172853382#5 172853382#7 239438610#0 239438610#1 239438610#2 239438610#3 239438610#4 239438610#5 -655680595"/>
    </vehicle>
    <vehicle id="45" depart="90.00">
        <route edges="92196679#0 92196679#2 92196679#3 1393474724#0 1453814098#0 1453814098#1 688824218#0 688824218#1 688824218#2 688824218#3 688824218#4 688824218#5 688824218#6 172853384#0 172853384#1 172853384#3 172853384#4 133763768#0 133763768#1 343961640#0 343961640#1 -133889539#1 -133889539#0 160334705#2 133763760"/>
    </vehicle>
    <vehicle id="46" depart="92.00">
        <route edges="696064753 -696064753 -40696214#0 40696200#2 40696200#3 40696200#4 243554072#2 243554072#3 243554072#4 243554072#5 694563706 688824218#2 688824218#3 688824218#4 688824218#5 688824218#6 172853384#0 172853384#1 172853384#3 172853384#4 133763768#0 133763768#1 133763768#2 133763768#5 1110164317 1110164320#0 1110164320#1 1110164320#2 1150874215#1 38042287#0 38042287#2 38042287#3 38042287#5 38042287#6"/>
    </vehicle>
    <vehicle id="47" depart="94.00">
        <route edges="-1102833436 -1427478016#1 -1427478016#0 688382572 -1227538903#1 -1227538903#0 -40693552#13 -40693552#12 27994380#0 27994380#1 27994380#2 27994380#4 27994380#5 27994380#6 27994380#8 27994380#9 27994380#10 27994380#11 27994380#12 27994380#13"/>
    </vehicle>
    <vehicle id="48" depart="96.00">
        <route edges="269436421#2 27785717#0 27785717#1 27785717#2 27785717#3 27785717#4 27785717#5 1110164319#1 1110164319#2 1110164319#3 1110164319#4 1110178545 1110164315#1 1110164315#2 1110164315#3 694991480 1372636962"/>
    </vehicle>
    <vehicle id="49" depart="98.00">
        <route edges="-309194364#0 309194364#0 147561888#8 147561888#9 147561888#10 147561877#2 290639790#16 290639790#17 290639790#19 290639790#21 290639790#22 172853383#2 688824219#0 239438926"/>
    </vehicle>
    <vehicle id="50" depart="100.00">
        <route edges="-147575172#2 254053182#1 1322924309 -559785241#1 -559785241#0 -254053187 172853384#3 172853384#4 133763768#0 684917326#1 684917326#2 684917326#3 172853382#0 172853382#1 172853382#2 172853382#3 172853382#4 172853382#5 172853382#7 239438610#0 239438610#1 239438610#2 239438610#3 800628089#0 -800628089#0"/>
    </vehicle>
    <vehicle id="51" depart="102.00">
        <route edges="1102833432 -147575196#4 -147575196#3 -147575196#2 -147575196#1 -147575196#0 -290639790#4 -290639790#3 -290639790#1 -290639790#0 -40693552#13 -40693552#12 -40693552#11 -40693552#10 -40693552#9 27994589#0 27994589#1 27994589#3 27994589#4 27994589#5 243896990#0 243896990#2 243896990#3 243896990#4 243896990#5 243896990#6 40696212#0 40696213 40696200#1 40696200#2 40696200#3 40696200#4 694335185"/>
    </vehicle>
    <vehicle id="52" depart="104.00">
        <route edges="1165355037#1 -250768278 250768275#1 250768275#2 -269436416#0 24231604#0 24231604#1 24231604#2 24231604#3 1110164317 1110164320#0 1110164320#1 1110164320#2 1150874215#1 38042287#0 27785740#0 27785740#1 27785740#2 27785740#3 -27785733#0"/>
    </vehicle>
    <vehicle id="53" depart="106.00">
        <route edges="559650169#0 559650169#1 559650169#2 559650169#3 1110164318 1110178545 1110164315#1 1110164315#2 1110164315#3 694991480 1372636962 27932070#0 27932070#1 27932070#2 27932070#3 -781283934 -389341683#1 -389341683#0 389341683#0"/>
    </vehicle>
    <vehicle id="54" depart="108.00">
        <route edges="-320774373#0 320774372 320774373#1 320774373#2 309194366#0 309194366#1 309194366#3 147561888#10 147561877#2 -290639790#15 -290639790#14 -290639790#13 -290639790#12 -290639790#11 -290639790#10 147561889#0 147561889#1 147561889#2 147561889#3 147561889#4 147561889#5 147561889#7 -1322924308 -559785241#1 -559785241#0 -254053187 172853384#3 172853384#4 133763768#0 684917326#1 684917326#2 684917326#3 172853382#0 172853382#1 172853382#2 172853382#3 172853382#4 172853382#5 172853382#7 239438610#0 239438610#1 239438610#2 239438610#3 239438610#4"/>
    </vehicle>
    <vehicle id="55" depart="110.00">
        <route edges="147575196#1 147575196#2 147575196#3 147575196#4 254053180#0 254053180#1 254053180#2 -254053180#2"/>
    </vehicle>
    <vehicle id="56" depart="112.00">
        <route edges="290639790#19 290639790#21 290639790#22 172853383#2 688824219#0 239438926 1459499822 1148460323#0 1148460323#1 1148460323#2 558769477#0 558769477#1 133764735 1392550268#0"/>
    </vehicle>
    <vehicle id="57" depart="114.00">
        <route edges="309191365#5 1227521826 694335199 -800240408#0 -27994380#1 -27994380#0 40693552#12 40693552#13 290639791 290639790#1 290639790#3 290639790#4 290639790#6 290639790#7 290639790#8 147561889#0 147561889#1 147561889#2 147561889#3 147561889#4 147561889#5 147561889#7 -1322924308 -559785241#1 -559785241#0 -254053187 172853384#3 172853384#4 133763768#0"/>
    </vehicle>
    <vehicle id="58" depart="116.00">
        <route edges="-1055574129#1 1055574130#0 1055574130#1 1356890583 1318033033 328835371#0 328835371#1 328835371#2 638928399#0 1459499823 160334705#0 160334705#1 160334705#2 133763760 148210030 148210028 172853382#0 172853382#1 55489682#0 55489682#1 55489682#2 363083979#2 -363083979#2"/>
    </vehicle>
    <vehicle id="59" depart="118.00">
        <route edges="-1102841594 1102841594 1227523736 309193897#1 -27994380#10 -27994380#9 -27994380#8 -27994380#6 -27994380#5 -27994380#4 -27994380#2 -27994380#1 -27994380#0 40693552#12 40693552#13 290639791 290639790#1 290639790#3 290639790#4 290639790#6 290639790#7 290639790#8 290639790#10 290639790#11 290639790#12 290639790#13 290639790#14 290639790#15 290639790#16 290639790#17 290639790#19 290639790#21 290639790#22 172853383#2 688824219#0 239438926 1459499822 1459499824 1031526548 1110164312#0 1110164312#1 1110164312#2 1110164312#3 150510724#1 150510724#2 24231604#0 655680594 -655680597#0 655680597#0"/>
    </vehicle>
    <vehicle id="60" depart="120.00">
        <route edges="40693552#10 40693552#11 40693552#12 40693552#13 290639791 290639790#1 290639790#3 290639790#4 290639790#6 290639790#7 290639790#8 290639790#10 290639790#11 290639790#12 290639790#13 290639790#14 290639790#15 -147561877#2 -147561877#1 -147561877#0 320774370 -309194366#0 -320774373#2 -320774373#1 -320774374 320774374"/>
    </vehicle>
    <vehicle id="61" depart="122.00">
        <route edges="-323697675#0 -688433395#0 24231604#2 24231604#3 1387944292 111814614#0 111814614#1 111814614#5 111814614#6 111814614#8 172853384#4 464465166#0 -1322924307 -1349146380"/>
    </vehicle>
    <vehicle id="62" depart="124.00">
        <route edges="40693552#1 40693552#2 40693552#4 40693552#5 40693552#6 40693552#7 40693552#9 40693552#10 40693552#11 40693552#12 40693552#13 290639791 290639790#1 290639790#3 290639790#4 290639790#6 290639790#7 290639790#8 290639790#10 290639790#11 290639790#12 290639790#13 290639790#14 290639790#15 290639790#16 290639790#17 290639790#19 290639790#21 290639790#22 172853383#2 688824219#0"/>
    </vehicle>
    <vehicle id="63" depart="126.00">
        <route edges="-147561897#2 696064747 147561888#2 147561888#3 147561888#4 309194367#0 -1242182539#0 290639790#8 290639790#10 290639790#11 290639790#12 290639790#13 290639790#14 290639790#15 290639790#16 290639790#17 290639790#19 290639790#21 290639790#22 172853383#2 688824219#0 239438926 1459499822 1459499824 1031526548 1110164312#0 1110164312#1 1110164312#2 1110164312#3 1110164317 1110164320#0 1110164320#1 1110164320#2 1150874215#1 111814615#0 111814615#1"/>
    </vehicle>
    <vehicle id="64" depart="128.00">
        <route edges="-147561877#2 147561877#2 -290639790#15 290639790#15"/>
    </vehicle>
    <vehicle id="65" depart="130.00">
        <route edges="290639790#4 290639790#6 290639790#7 290639790#8 290639790#10 290639790#11 290639790#12 290639790#13 290639790#14 290639790#15 290639790#16 290639790#17 290639790#19 290639790#21 290639790#22 172853383#2 688824219#0 239438926 1459499822 1459499824 1031526548 1110164312#0 1110164312#1 1110164312#2 1110164312#3 150510724#1 -27445936#7 -27445936#6 -27445936#5 -24299075#1 -24299075#0"/>
    </vehicle>
    <vehicle id="66" depart="132.00">
        <route edges="1110164319#0 1110164319#1 1110164319#2 1110164319#3 1110164319#4 1110178545 150510724#1 150510724#2 24231604#0 24231604#1 -1450643779 688433395#1 323697675#1 323697675#2 1450643777"/>
    </vehicle>
    <vehicle id="67" depart="134.00">
        <route edges="-309194360 147561899#2 147561899#3 147561899#4 147561899#5 147561899#6 -309194363 147561888#4 309194367#0 -1242182539#0 290639790#8 290639790#10 290639790#11 290639790#12 290639790#13 290639790#14 290639790#15 290639790#16 290639790#17 290639790#19 290639790#21 290639790#22 172853383#2 688824219#0 239438926 1459499822 1372636963 27932070#0 27932070#1 27932070#2 389341679 389341680 389341685#0"/>
    </vehicle>
    <vehicle id="68" depart="136.00">
        <route edges="-27994538#0 290639790#15 290639790#16 290639790#17 290639790#19 290639790#21 290639790#22 172853383#2 688824219#0 239438926 1459499822 1459499824 1031526548 1110164312#0 1110164312#1 1110164312#2 1110164312#3 150510724#1 150510724#2 24231604#0 24231604#1 -1450643779 688433395#1 -323697675#7 -323697675#6"/>
    </vehicle>
    <vehicle id="69" depart="138.00">
        <route edges="-85933404 250768275#2 -269436416#0 24231604#0 24231604#1 24231604#2 24231604#3 1110164317 1110164320#0 1110164320#1 1110164320#2 1150874215#1 38042287#0 28186938#0 28186938#1 28186938#2 28186938#3 -28125818#2 1228781587"/>
    </vehicle>
    <vehicle id="70" depart="140.00">
        <route edges="-147575196#0 290639790#6 290639790#7 290639790#8 290639790#10 290639790#11 290639790#12 290639790#13 290639790#14 290639790#15 290639790#16 290639790#17 290639790#19 290639790#21 290639790#22 172853383#2 688824219#0 239438926 1459499822 1459499824 1031526548 1110164312#0 1110164312#1 1110164312#2 1110164312#3 1110164317 1110164320#0 1110164320#1 1110164320#2 1150874215#1 38042287#0 28186938#0 -28186938#0"/>
    </vehicle>
    <vehicle id="71" depart="142.00">
        <route edges="-290639790#0 290639791 290639790#1 290639790#3 290639790#4 290639790#6 290639790#7 290639790#8 290639790#10 290639790#11 290639790#12 290639790#13 290639790#14 290639790#15 290639790#16 290639790#17 290639790#19 290639790#21 290639790#22 172853383#2 688824219#0 239438926 1459499822 1459499824 1031526548 1110164312#0 1110164312#1 1110164312#2 1110164312#3 1110164317 1110164320#0 1110164320#1 1110164320#2 1150874215#1 38042287#0 28186938#0 28186938#1 28186938#2 28186938#3 -28125818#2 -28125818#1 558764104#0 558764104#1 -28125800#2"/>
    </vehicle>
    <vehicle id="72" depart="144.00">